# generated using pymatgen
data_K2O
_symmetry_space_group_name_H-M   'P 1'
_cell_length_a   7.38990335
_cell_length_b   10.57521616
_cell_length_c   7.59035991
_cell_angle_alpha   27.71282383
_cell_angle_beta   61.59446039
_cell_angle_gamma   46.29963222
_symmetry_Int_Tables_number   1
_chemical_formula_structural   K2O
_chemical_formula_sum   'K4 O2'
_cell_volume   182.40725545
_cell_formula_units_Z   2
loop_
 _symmetry_equiv_pos_site_id
 _symmetry_equiv_pos_as_xyz
  1  'x, y, z'
loop_
 _atom_site_type_symbol
 _atom_site_label
 _atom_site_symmetry_multiplicity
 _atom_site_fract_x
 _atom_site_fract_y
 _atom_site_fract_z
 _atom_site_occupancy
  K  K1  1  0.947198  -0.000087  0.103915  1
  K  K2  1  0.550722  0.998229  0.903364  1
  K  K3  1  0.304151  0.493308  0.908456  1
  K  K4  1  0.701455  0.494004  0.109594  1
  O  O5  1  0.496844  0.503564  0.498724  1
  O  O6  1  0.755582  0.989665  0.512567  1
