# generated using pymatgen
data_Li2Ta2O3
_symmetry_space_group_name_H-M   'P 1'
_cell_length_a   5.44482826
_cell_length_b   4.87491005
_cell_length_c   10.13181203
_cell_angle_alpha   67.06607871
_cell_angle_beta   57.63339181
_cell_angle_gamma   57.29432788
_symmetry_Int_Tables_number   1
_chemical_formula_structural   Li2Ta2O3
_chemical_formula_sum   'Li4 Ta4 O6'
_cell_volume   189.21834939
_cell_formula_units_Z   2
loop_
 _symmetry_equiv_pos_site_id
 _symmetry_equiv_pos_as_xyz
  1  'x, y, z'
loop_
 _atom_site_type_symbol
 _atom_site_label
 _atom_site_symmetry_multiplicity
 _atom_site_fract_x
 _atom_site_fract_y
 _atom_site_fract_z
 _atom_site_occupancy
  Li  Li1  1  0.219709  0.248090  0.121177  1
  Li  Li2  1  0.252019  0.241922  0.625720  1
  Li  Li3  1  0.761271  0.691059  0.385245  1
  Li  Li4  1  0.738542  0.773120  0.862591  1
  Ta  Ta5  1  0.033611  0.942786  0.984680  1
  Ta  Ta6  1  0.462652  0.551974  0.250332  1
  Ta  Ta7  1  0.066263  0.934478  0.480334  1
  Ta  Ta8  1  0.469123  0.537370  0.765246  1
  O  O9  1  0.219490  0.289228  0.340663  1
  O  O10  1  0.349074  0.808130  0.072096  1
  O  O11  1  0.815442  0.683598  0.172959  1
  O  O12  1  0.294258  0.825803  0.606334  1
  O  O13  1  0.711902  0.198886  0.895711  1
  O  O14  1  0.850044  0.651855  0.626061  1
