# generated using pymatgen
data_Li3Ta7O19
_symmetry_space_group_name_H-M   'P 1'
_cell_length_a   6.30100323
_cell_length_b   6.30093980
_cell_length_c   20.16851685
_cell_angle_alpha   90.00005623
_cell_angle_beta   89.99992224
_cell_angle_gamma   120.00082248
_symmetry_Int_Tables_number   1
_chemical_formula_structural   Li3Ta7O19
_chemical_formula_sum   'Li6 Ta14 O38'
_cell_volume   693.45139603
_cell_formula_units_Z   2
loop_
 _symmetry_equiv_pos_site_id
 _symmetry_equiv_pos_as_xyz
  1  'x, y, z'
loop_
 _atom_site_type_symbol
 _atom_site_label
 _atom_site_symmetry_multiplicity
 _atom_site_fract_x
 _atom_site_fract_y
 _atom_site_fract_z
 _atom_site_occupancy
  Li  Li1  1  0.000003  0.500006  0.999999  1
  Li  Li2  1  0.000006  0.500004  0.500000  1
  Li  Li3  1  0.500003  0.500000  0.999999  1
  Li  Li4  1  0.499998  0.499996  0.500001  1
  Li  Li5  1  0.499993  0.000002  0.500001  1
  Li  Li6  1  0.499999  0.000002  0.000001  1
  Ta  Ta7  1  0.305083  0.970705  0.654857  1
  Ta  Ta8  1  0.305093  0.970716  0.845207  1
  Ta  Ta9  1  0.029289  0.334387  0.654858  1
  Ta  Ta10  1  0.029284  0.334380  0.845207  1
  Ta  Ta11  1  0.000008  0.000004  0.000000  1
  Ta  Ta12  1  -0.000003  -0.000001  0.500002  1
  Ta  Ta13  1  0.334379  0.305088  0.154788  1
  Ta  Ta14  1  0.334382  0.305086  0.345144  1
  Ta  Ta15  1  0.665620  0.694915  0.654857  1
  Ta  Ta16  1  0.665628  0.694911  0.845209  1
  Ta  Ta17  1  0.970717  0.665614  0.154787  1
  Ta  Ta18  1  0.970710  0.665616  0.345143  1
  Ta  Ta19  1  0.694915  0.029276  0.154787  1
  Ta  Ta20  1  0.694915  0.029296  0.345143  1
  O  O21  1  0.243060  0.959608  0.554913  1
  O  O22  1  0.243081  0.959609  0.945072  1
  O  O23  1  0.294620  0.930721  0.749957  1
  O  O24  1  0.085894  0.420193  0.150299  1
  O  O25  1  0.085896  0.420205  0.349710  1
  O  O26  1  0.069288  0.363903  0.749958  1
  O  O27  1  0.334300  0.914085  0.150297  1
  O  O28  1  0.334302  0.914097  0.349709  1
  O  O29  1  0.040387  0.283458  0.554914  1
  O  O30  1  0.040393  0.283476  0.945071  1
  O  O31  1  -0.000000  0.999992  0.163760  1
  O  O32  1  0.000001  0.000002  0.336246  1
  O  O33  1  0.000006  0.000004  0.663754  1
  O  O34  1  0.000004  0.000001  0.836242  1
  O  O35  1  0.333338  0.666667  0.637936  1
  O  O36  1  0.333338  0.666664  0.862058  1
  O  O37  1  0.283476  0.243086  0.054930  1
  O  O38  1  0.283456  0.243073  0.445085  1
  O  O39  1  0.363903  0.294624  0.250046  1
  O  O40  1  0.420222  0.334309  0.650289  1
  O  O41  1  0.420218  0.334303  0.849705  1
  O  O42  1  0.579784  0.665701  0.349712  1
  O  O43  1  0.579792  0.665688  0.150296  1
  O  O44  1  0.636105  0.705381  0.749958  1
  O  O45  1  0.716551  0.756928  0.554912  1
  O  O46  1  0.716536  0.756918  0.945072  1
  O  O47  1  0.666666  0.333335  0.362062  1
  O  O48  1  0.666663  0.333324  0.137944  1
  O  O49  1  0.959609  0.716529  0.054930  1
  O  O50  1  0.959609  0.716540  0.445084  1
  O  O51  1  0.665701  0.085907  0.650291  1
  O  O52  1  0.665705  0.085905  0.849704  1
  O  O53  1  0.930721  0.636099  0.250044  1
  O  O54  1  0.914113  0.579807  0.650294  1
  O  O55  1  0.914111  0.579803  0.849704  1
  O  O56  1  0.705382  0.069274  0.250044  1
  O  O57  1  0.756921  0.040389  0.054928  1
  O  O58  1  0.756925  0.040388  0.445086  1
