# generated using pymatgen
data_LiTa3O8
_symmetry_space_group_name_H-M   'P 1'
_cell_length_a   16.98935004
_cell_length_b   7.77965508
_cell_length_c   8.99835097
_cell_angle_alpha   90.00000000
_cell_angle_beta   89.69511946
_cell_angle_gamma   90.00000000
_symmetry_Int_Tables_number   1
_chemical_formula_structural   LiTa3O8
_chemical_formula_sum   'Li8 Ta24 O64'
_cell_volume   1189.30675829
_cell_formula_units_Z   8
loop_
 _symmetry_equiv_pos_site_id
 _symmetry_equiv_pos_as_xyz
  1  'x, y, z'
loop_
 _atom_site_type_symbol
 _atom_site_label
 _atom_site_symmetry_multiplicity
 _atom_site_fract_x
 _atom_site_fract_y
 _atom_site_fract_z
 _atom_site_occupancy
  Li  Li1  1  0.248320  0.250000  0.312038  1
  Li  Li2  1  0.405001  0.750000  0.082411  1
  Li  Li3  1  0.494362  0.250000  0.528328  1
  Li  Li4  1  0.505305  0.750000  0.472763  1
  Li  Li5  1  0.591578  0.250000  0.916908  1
  Li  Li6  1  0.751449  0.750000  0.679559  1
  Li  Li7  1  0.917031  0.250000  0.920366  1
  Li  Li8  1  0.994856  0.750000  0.467406  1
  Ta  Ta9  1  0.059905  0.502881  0.810054  1
  Ta  Ta10  1  0.059905  0.997119  0.810054  1
  Ta  Ta11  1  0.128344  0.998427  0.397745  1
  Ta  Ta12  1  0.128344  0.501573  0.397745  1
  Ta  Ta13  1  0.251142  0.498249  0.686754  1
  Ta  Ta14  1  0.249337  0.997158  0.050818  1
  Ta  Ta15  1  0.249337  0.502842  0.050818  1
  Ta  Ta16  1  0.251142  0.001751  0.686754  1
  Ta  Ta17  1  0.367968  0.995649  0.391807  1
  Ta  Ta18  1  0.367968  0.504351  0.391807  1
  Ta  Ta19  1  0.440321  0.501374  0.809270  1
  Ta  Ta20  1  0.440321  0.998626  0.809270  1
  Ta  Ta21  1  0.559325  0.001625  0.190572  1
  Ta  Ta22  1  0.559325  0.498375  0.190572  1
  Ta  Ta23  1  0.631783  0.495739  0.607816  1
  Ta  Ta24  1  0.631783  0.004261  0.607816  1
  Ta  Ta25  1  0.749492  0.998294  0.315004  1
  Ta  Ta26  1  0.749492  0.501706  0.315004  1
  Ta  Ta27  1  0.750078  0.498427  0.949420  1
  Ta  Ta28  1  0.750078  0.001573  0.949420  1
  Ta  Ta29  1  0.871717  0.494418  0.605119  1
  Ta  Ta30  1  0.871717  0.005582  0.605119  1
  Ta  Ta31  1  0.939666  0.999992  0.186560  1
  Ta  Ta32  1  0.939666  0.500008  0.186560  1
  O  O33  1  0.993178  0.000657  0.993254  1
  O  O34  1  0.993178  0.499343  0.993254  1
  O  O35  1  0.020728  0.026564  0.335847  1
  O  O36  1  0.020728  0.473436  0.335847  1
  O  O37  1  0.043995  0.250000  0.806948  1
  O  O38  1  0.071550  0.750000  0.831595  1
  O  O39  1  0.107214  0.750000  0.421334  1
  O  O40  1  0.133705  0.006688  0.621186  1
  O  O41  1  0.133705  0.493312  0.621186  1
  O  O42  1  0.144216  0.250000  0.390578  1
  O  O43  1  0.169597  0.529076  0.199577  1
  O  O44  1  0.169597  0.970924  0.199577  1
  O  O45  1  0.175174  0.022275  0.877818  1
  O  O46  1  0.175174  0.477725  0.877818  1
  O  O47  1  0.251173  0.982227  0.452865  1
  O  O48  1  0.251774  0.250000  0.672003  1
  O  O49  1  0.251173  0.517773  0.452865  1
  O  O50  1  0.254590  0.750000  0.018405  1
  O  O51  1  0.252536  0.750000  0.698485  1
  O  O52  1  0.253215  0.250000  0.093013  1
  O  O53  1  0.327485  0.026645  0.875171  1
  O  O54  1  0.327485  0.473355  0.875171  1
  O  O55  1  0.339946  0.540151  0.186299  1
  O  O56  1  0.339946  0.959849  0.186299  1
  O  O57  1  0.354873  0.250000  0.385347  1
  O  O58  1  0.369969  0.006625  0.618123  1
  O  O59  1  0.369969  0.493375  0.618123  1
  O  O60  1  0.394870  0.750000  0.414019  1
  O  O61  1  0.428556  0.750000  0.844941  1
  O  O62  1  0.461870  0.250000  0.793766  1
  O  O63  1  0.480125  0.040636  0.346837  1
  O  O64  1  0.480125  0.459364  0.346837  1
  O  O65  1  0.500185  0.000297  0.000342  1
  O  O66  1  0.500185  0.499703  0.000342  1
  O  O67  1  0.520294  0.540455  0.653390  1
  O  O68  1  0.520294  0.959545  0.653390  1
  O  O69  1  0.539525  0.750000  0.206815  1
  O  O70  1  0.572361  0.250000  0.155237  1
  O  O71  1  0.605392  0.250000  0.586108  1
  O  O72  1  0.630961  0.506255  0.382759  1
  O  O73  1  0.630961  0.993745  0.382759  1
  O  O74  1  0.644511  0.750000  0.615129  1
  O  O75  1  0.661219  0.041948  0.813942  1
  O  O76  1  0.661219  0.458052  0.813942  1
  O  O77  1  0.673158  0.526288  0.124844  1
  O  O78  1  0.673158  0.973712  0.124844  1
  O  O79  1  0.748100  0.250000  0.303645  1
  O  O80  1  0.748875  0.250000  0.982511  1
  O  O81  1  0.749329  0.484684  0.551296  1
  O  O82  1  0.748919  0.750000  0.329625  1
  O  O83  1  0.748491  0.750000  0.901060  1
  O  O84  1  0.749329  0.015316  0.551296  1
  O  O85  1  0.823361  0.524575  0.124806  1
  O  O86  1  0.823361  0.975425  0.124806  1
  O  O87  1  0.837209  0.036192  0.811777  1
  O  O88  1  0.837209  0.463808  0.811777  1
  O  O89  1  0.856104  0.750000  0.609167  1
  O  O90  1  0.867082  0.502758  0.381954  1
  O  O91  1  0.867082  0.997242  0.381954  1
  O  O92  1  0.888475  0.250000  0.591078  1
  O  O93  1  0.925688  0.250000  0.158364  1
  O  O94  1  0.949071  0.750000  0.207185  1
  O  O95  1  0.980514  0.540035  0.655256  1
  O  O96  1  0.980514  0.959965  0.655256  1
