# generated using pymatgen
data_LiTa3O8
_symmetry_space_group_name_H-M   'P 1'
_cell_length_a   16.98349268
_cell_length_b   7.78152864
_cell_length_c   8.99892652
_cell_angle_alpha   90.00000000
_cell_angle_beta   90.00000000
_cell_angle_gamma   90.00000000
_symmetry_Int_Tables_number   1
_chemical_formula_structural   LiTa3O8
_chemical_formula_sum   'Li8 Ta24 O64'
_cell_volume   1189.27594380
_cell_formula_units_Z   8
loop_
 _symmetry_equiv_pos_site_id
 _symmetry_equiv_pos_as_xyz
  1  'x, y, z'
loop_
 _atom_site_type_symbol
 _atom_site_label
 _atom_site_symmetry_multiplicity
 _atom_site_fract_x
 _atom_site_fract_y
 _atom_site_fract_z
 _atom_site_occupancy
  Li  Li1  1  0.090135  0.750000  0.078236  1
  Li  Li2  1  0.251502  0.250000  0.317698  1
  Li  Li3  1  0.410039  0.750000  0.080921  1
  Li  Li4  1  0.495301  0.250000  0.530910  1
  Li  Li5  1  0.590135  0.250000  0.921764  1
  Li  Li6  1  0.751502  0.750000  0.682302  1
  Li  Li7  1  0.910039  0.250000  0.919079  1
  Li  Li8  1  0.995301  0.750000  0.469090  1
  Ta  Ta9  1  0.059972  0.500808  0.808127  1
  Ta  Ta10  1  0.059972  0.999192  0.808127  1
  Ta  Ta11  1  0.129913  0.998643  0.394910  1
  Ta  Ta12  1  0.129913  0.501357  0.394910  1
  Ta  Ta13  1  0.250495  0.498172  0.686141  1
  Ta  Ta14  1  0.249769  0.998501  0.051115  1
  Ta  Ta15  1  0.249769  0.501499  0.051115  1
  Ta  Ta16  1  0.250495  0.001828  0.686141  1
  Ta  Ta17  1  0.370498  0.994409  0.394182  1
  Ta  Ta18  1  0.370498  0.505591  0.394182  1
  Ta  Ta19  1  0.439852  0.501599  0.812397  1
  Ta  Ta20  1  0.439852  0.998401  0.812397  1
  Ta  Ta21  1  0.559972  0.000808  0.191873  1
  Ta  Ta22  1  0.559972  0.499192  0.191873  1
  Ta  Ta23  1  0.629913  0.498643  0.605090  1
  Ta  Ta24  1  0.629913  0.001357  0.605090  1
  Ta  Ta25  1  0.750495  0.998172  0.313859  1
  Ta  Ta26  1  0.750495  0.501828  0.313859  1
  Ta  Ta27  1  0.749769  0.498501  0.948885  1
  Ta  Ta28  1  0.749769  0.001499  0.948885  1
  Ta  Ta29  1  0.870498  0.494409  0.605818  1
  Ta  Ta30  1  0.870498  0.005591  0.605818  1
  Ta  Ta31  1  0.939852  0.001599  0.187603  1
  Ta  Ta32  1  0.939852  0.498401  0.187603  1
  O  O33  1  0.999244  0.997105  0.999190  1
  O  O34  1  0.999244  0.502895  0.999190  1
  O  O35  1  0.021129  0.029162  0.337496  1
  O  O36  1  0.021129  0.470838  0.337496  1
  O  O37  1  0.041463  0.250000  0.807882  1
  O  O38  1  0.074129  0.750000  0.847421  1
  O  O39  1  0.107244  0.750000  0.417461  1
  O  O40  1  0.132056  0.005888  0.619147  1
  O  O41  1  0.132056  0.494112  0.619147  1
  O  O42  1  0.145134  0.250000  0.382478  1
  O  O43  1  0.163160  0.541285  0.189879  1
  O  O44  1  0.163160  0.958715  0.189879  1
  O  O45  1  0.174570  0.025192  0.875830  1
  O  O46  1  0.174570  0.474808  0.875830  1
  O  O47  1  0.250443  0.750000  0.697271  1
  O  O48  1  0.250169  0.985198  0.450583  1
  O  O49  1  0.250017  0.250000  0.672505  1
  O  O50  1  0.250169  0.514802  0.450583  1
  O  O51  1  0.250133  0.750000  0.017211  1
  O  O52  1  0.249527  0.250000  0.098534  1
  O  O53  1  0.325127  0.025948  0.875784  1
  O  O54  1  0.325127  0.474052  0.875784  1
  O  O55  1  0.338238  0.537384  0.187287  1
  O  O56  1  0.338238  0.962616  0.187287  1
  O  O57  1  0.356113  0.250000  0.389448  1
  O  O58  1  0.368810  0.005267  0.618599  1
  O  O59  1  0.368810  0.494733  0.618599  1
  O  O60  1  0.388665  0.750000  0.410172  1
  O  O61  1  0.426491  0.750000  0.847873  1
  O  O62  1  0.456733  0.250000  0.797896  1
  O  O63  1  0.480165  0.043893  0.343122  1
  O  O64  1  0.480165  0.456107  0.343122  1
  O  O65  1  0.499244  0.002895  0.000810  1
  O  O66  1  0.499244  0.497105  0.000810  1
  O  O67  1  0.521129  0.529162  0.662504  1
  O  O68  1  0.521129  0.970838  0.662504  1
  O  O69  1  0.541463  0.750000  0.192118  1
  O  O70  1  0.574129  0.250000  0.152579  1
  O  O71  1  0.607244  0.250000  0.582539  1
  O  O72  1  0.632056  0.505888  0.380853  1
  O  O73  1  0.632056  0.994112  0.380853  1
  O  O74  1  0.645134  0.750000  0.617522  1
  O  O75  1  0.663160  0.041285  0.810121  1
  O  O76  1  0.663160  0.458715  0.810121  1
  O  O77  1  0.674570  0.525192  0.124170  1
  O  O78  1  0.674570  0.974808  0.124170  1
  O  O79  1  0.750443  0.250000  0.302729  1
  O  O80  1  0.750133  0.250000  0.982789  1
  O  O81  1  0.750169  0.485198  0.549417  1
  O  O82  1  0.750017  0.750000  0.327495  1
  O  O83  1  0.749527  0.750000  0.901466  1
  O  O84  1  0.750169  0.014802  0.549417  1
  O  O85  1  0.825127  0.525948  0.124216  1
  O  O86  1  0.825127  0.974052  0.124216  1
  O  O87  1  0.838238  0.037384  0.812713  1
  O  O88  1  0.838238  0.462616  0.812713  1
  O  O89  1  0.856113  0.750000  0.610552  1
  O  O90  1  0.868810  0.505267  0.381401  1
  O  O91  1  0.868810  0.994733  0.381401  1
  O  O92  1  0.888665  0.250000  0.589828  1
  O  O93  1  0.926491  0.250000  0.152127  1
  O  O94  1  0.956733  0.750000  0.202104  1
  O  O95  1  0.980165  0.543893  0.656878  1
  O  O96  1  0.980165  0.956107  0.656878  1
