# generated using pymatgen
data_Li7TaO6
_symmetry_space_group_name_H-M   'P 1'
_cell_length_a   5.60229755
_cell_length_b   5.60229754
_cell_length_c   14.74890930
_cell_angle_alpha   90.00000000
_cell_angle_beta   90.00000000
_cell_angle_gamma   120.00000004
_symmetry_Int_Tables_number   1
_chemical_formula_structural   Li7TaO6
_chemical_formula_sum   'Li21 Ta3 O18'
_cell_volume   400.88783590
_cell_formula_units_Z   3
loop_
 _symmetry_equiv_pos_site_id
 _symmetry_equiv_pos_as_xyz
  1  'x, y, z'
loop_
 _atom_site_type_symbol
 _atom_site_label
 _atom_site_symmetry_multiplicity
 _atom_site_fract_x
 _atom_site_fract_y
 _atom_site_fract_z
 _atom_site_occupancy
  Li  Li1  1  0.382764  0.389245  0.115352  1
  Li  Li2  1  0.610755  0.993519  0.115352  1
  Li  Li3  1  0.006481  0.617236  0.115352  1
  Li  Li4  1  0.603964  0.650190  0.885093  1
  Li  Li5  1  0.349810  0.953774  0.885093  1
  Li  Li6  1  0.046226  0.396036  0.885093  1
  Li  Li7  1  0.049423  0.722605  0.448603  1
  Li  Li8  1  0.277395  0.326818  0.448603  1
  Li  Li9  1  0.673182  0.950577  0.448603  1
  Li  Li10  1  0.937263  0.316823  0.551815  1
  Li  Li11  1  0.683177  0.620439  0.551815  1
  Li  Li12  1  0.379561  0.062737  0.551815  1
  Li  Li13  1  0.716096  0.055925  0.781960  1
  Li  Li14  1  0.944075  0.660172  0.781960  1
  Li  Li15  1  0.339828  0.283904  0.781960  1
  Li  Li16  1  0.270633  0.983537  0.218428  1
  Li  Li17  1  0.016463  0.287097  0.218428  1
  Li  Li18  1  0.712903  0.729367  0.218428  1
  Li  Li19  1  0.000000  0.000000  0.654588  1
  Li  Li20  1  0.666667  0.333333  0.987932  1
  Li  Li21  1  0.333333  0.666667  0.321250  1
  O  O22  1  0.632169  0.021737  0.253083  1
  O  O23  1  0.389568  0.367831  0.253083  1
  O  O24  1  0.978263  0.610432  0.253083  1
  O  O25  1  0.716202  0.706726  0.081714  1
  O  O26  1  0.293274  0.009476  0.081714  1
  O  O27  1  0.990524  0.283798  0.081714  1
  O  O28  1  0.311587  0.277056  0.919745  1
  O  O29  1  0.722944  0.034531  0.919745  1
  O  O30  1  0.965469  0.688413  0.919745  1
  O  O31  1  0.382856  0.040090  0.415026  1
  O  O32  1  0.959910  0.342766  0.415026  1
  O  O33  1  0.657234  0.617144  0.415026  1
  O  O34  1  0.644916  0.943738  0.586411  1
  O  O35  1  0.056262  0.701177  0.586411  1
  O  O36  1  0.298823  0.355084  0.586411  1
  O  O37  1  0.049511  0.373362  0.748346  1
  O  O38  1  0.626638  0.676150  0.748346  1
  O  O39  1  0.323850  0.950489  0.748346  1
  Ta  Ta40  1  0.333333  0.666667  0.667964  1
  Ta  Ta41  1  0.666667  0.333333  0.334687  1
  Ta  Ta42  1  0.000000  0.000000  0.001350  1
