# generated using pymatgen
data_Li4CO4
_symmetry_space_group_name_H-M   'P 1'
_cell_length_a   4.79411195
_cell_length_b   4.67188728
_cell_length_c   4.77750834
_cell_angle_alpha   119.27131339
_cell_angle_beta   114.86936548
_cell_angle_gamma   89.99985077
_symmetry_Int_Tables_number   1
_chemical_formula_structural   Li4CO4
_chemical_formula_sum   'Li4 C1 O4'
_cell_volume   81.77762356
_cell_formula_units_Z   1
loop_
 _symmetry_equiv_pos_site_id
 _symmetry_equiv_pos_as_xyz
  1  'x, y, z'
loop_
 _atom_site_type_symbol
 _atom_site_label
 _atom_site_symmetry_multiplicity
 _atom_site_fract_x
 _atom_site_fract_y
 _atom_site_fract_z
 _atom_site_occupancy
  O  O1  1  0.104949  0.845838  0.799964  1
  C  C2  1  1.000000  0.774582  1.000001  1
  Li  Li3  1  0.100622  0.234693  0.747088  1
  Li  Li4  1  0.460168  0.750353  0.690154  1
  Li  Li5  1  0.899377  0.487600  0.252903  1
  O  O6  1  0.256544  0.708022  0.232727  1
  O  O7  1  0.743459  0.475296  0.767280  1
  Li  Li8  1  0.539832  0.060203  0.309850  1
  O  O9  1  0.895049  0.045874  0.200033  1
