# generated using pymatgen
data_K8In11
_symmetry_space_group_name_H-M   'P 1'
_cell_length_a   18.12323614
_cell_length_b   18.12323580
_cell_length_c   18.12323549
_cell_angle_alpha   32.46793757
_cell_angle_beta   32.46793926
_cell_angle_gamma   32.46793953
_symmetry_Int_Tables_number   1
_chemical_formula_structural   K8In11
_chemical_formula_sum   'K16 In22'
_cell_volume   1525.29331095
_cell_formula_units_Z   2
loop_
 _symmetry_equiv_pos_site_id
 _symmetry_equiv_pos_as_xyz
  1  'x, y, z'
loop_
 _atom_site_type_symbol
 _atom_site_label
 _atom_site_symmetry_multiplicity
 _atom_site_fract_x
 _atom_site_fract_y
 _atom_site_fract_z
 _atom_site_occupancy
  K  K1  1  0.579353  0.579353  0.579353  1
  K  K2  1  0.420647  0.420647  0.420647  1
  K  K3  1  0.678591  0.907754  0.348880  1
  K  K4  1  0.592246  0.821409  0.151120  1
  K  K5  1  0.151120  0.592246  0.821409  1
  K  K6  1  0.178591  0.848880  0.407754  1
  K  K7  1  0.321409  0.092246  0.651120  1
  K  K8  1  0.848880  0.407754  0.178591  1
  K  K9  1  0.079353  0.079353  0.079353  1
  K  K10  1  0.348880  0.678591  0.907754  1
  K  K11  1  0.651120  0.321409  0.092246  1
  K  K12  1  0.821409  0.151120  0.592246  1
  K  K13  1  0.907754  0.348880  0.678591  1
  K  K14  1  0.920647  0.920647  0.920647  1
  K  K15  1  0.407754  0.178591  0.848880  1
  K  K16  1  0.092246  0.651120  0.321409  1
  In  In17  1  0.250000  0.460192  0.039808  1
  In  In18  1  0.074690  0.495670  0.771399  1
  In  In19  1  0.539808  0.960192  0.750000  1
  In  In20  1  0.425310  0.728601  0.004330  1
  In  In21  1  0.460192  0.039808  0.250000  1
  In  In22  1  0.700143  0.700143  0.700143  1
  In  In23  1  0.228601  0.925310  0.504330  1
  In  In24  1  0.995670  0.574690  0.271399  1
  In  In25  1  0.750000  0.539808  0.960192  1
  In  In26  1  0.299857  0.299857  0.299857  1
  In  In27  1  0.728601  0.004330  0.425310  1
  In  In28  1  0.925310  0.504330  0.228601  1
  In  In29  1  0.200143  0.200143  0.200143  1
  In  In30  1  0.799857  0.799857  0.799857  1
  In  In31  1  0.039808  0.250000  0.460192  1
  In  In32  1  0.004330  0.425310  0.728601  1
  In  In33  1  0.771399  0.074690  0.495670  1
  In  In34  1  0.271399  0.995670  0.574690  1
  In  In35  1  0.504330  0.228601  0.925310  1
  In  In36  1  0.495670  0.771399  0.074690  1
  In  In37  1  0.960192  0.750000  0.539808  1
  In  In38  1  0.574690  0.271399  0.995670  1
