# generated using pymatgen
data_LiTa3O8
_symmetry_space_group_name_H-M   'P 1'
_cell_length_a   7.73683109
_cell_length_b   9.04683398
_cell_length_c   16.86539324
_cell_angle_alpha   90.00000000
_cell_angle_beta   90.00000000
_cell_angle_gamma   90.00000000
_symmetry_Int_Tables_number   1
_chemical_formula_structural   LiTa3O8
_chemical_formula_sum   'Li8 Ta24 O64'
_cell_volume   1180.47340665
_cell_formula_units_Z   8
loop_
 _symmetry_equiv_pos_site_id
 _symmetry_equiv_pos_as_xyz
  1  'x, y, z'
loop_
 _atom_site_type_symbol
 _atom_site_label
 _atom_site_symmetry_multiplicity
 _atom_site_fract_x
 _atom_site_fract_y
 _atom_site_fract_z
 _atom_site_occupancy
  Li  Li1  1  0.750000  0.540273  0.005882  1
  Li  Li2  1  0.750000  0.540273  0.494118  1
  Li  Li3  1  0.750000  0.091339  0.084037  1
  Li  Li4  1  0.250000  0.459727  0.994118  1
  Li  Li5  1  0.250000  0.459727  0.505882  1
  Li  Li6  1  0.750000  0.091339  0.415963  1
  Li  Li7  1  0.250000  0.908661  0.915963  1
  Li  Li8  1  0.250000  0.908661  0.584037  1
  Ta  Ta9  1  0.999519  0.811808  0.060363  1
  Ta  Ta10  1  0.998081  0.393394  0.367233  1
  Ta  Ta11  1  0.000481  0.188192  0.939637  1
  Ta  Ta12  1  0.000481  0.188192  0.560363  1
  Ta  Ta13  1  0.001520  0.687578  0.250000  1
  Ta  Ta14  1  0.501520  0.312422  0.750000  1
  Ta  Ta15  1  0.498480  0.687578  0.250000  1
  Ta  Ta16  1  0.999519  0.811808  0.439637  1
  Ta  Ta17  1  0.998480  0.312422  0.750000  1
  Ta  Ta18  1  0.500481  0.811808  0.439637  1
  Ta  Ta19  1  0.001919  0.606606  0.632767  1
  Ta  Ta20  1  0.499519  0.188192  0.939637  1
  Ta  Ta21  1  0.500010  0.053312  0.250000  1
  Ta  Ta22  1  1.000010  0.946688  0.750000  1
  Ta  Ta23  1  0.499990  0.946688  0.750000  1
  Ta  Ta24  1  0.498081  0.606606  0.867233  1
  Ta  Ta25  1  -0.000010  0.053312  0.250000  1
  Ta  Ta26  1  0.501919  0.393394  0.132767  1
  Ta  Ta27  1  0.498081  0.606606  0.632767  1
  Ta  Ta28  1  0.501919  0.393394  0.367233  1
  Ta  Ta29  1  0.998081  0.393394  0.132767  1
  Ta  Ta30  1  0.500481  0.811808  0.060363  1
  Ta  Ta31  1  0.499519  0.188192  0.560363  1
  Ta  Ta32  1  0.001919  0.606606  0.867233  1
  O  O33  1  0.250000  0.398017  0.139492  1
  O  O34  1  0.001428  0.619901  0.368419  1
  O  O35  1  0.998572  0.380099  0.868419  1
  O  O36  1  0.750000  0.416412  0.397311  1
  O  O37  1  0.972929  0.124096  0.674775  1
  O  O38  1  0.027071  0.875904  0.325225  1
  O  O39  1  0.458116  0.339794  0.020008  1
  O  O40  1  0.250000  0.583588  0.602689  1
  O  O41  1  0.501428  0.380099  0.631581  1
  O  O42  1  0.474865  0.548373  0.750000  1
  O  O43  1  0.458967  0.811147  0.838439  1
  O  O44  1  0.472929  0.875904  0.174775  1
  O  O45  1  0.250000  0.151307  0.926868  1
  O  O46  1  0.750000  0.017582  0.250000  1
  O  O47  1  0.498572  0.619901  0.368419  1
  O  O48  1  0.001428  0.619901  0.131581  1
  O  O49  1  0.250000  0.668884  0.250000  1
  O  O50  1  0.525135  0.451627  0.250000  1
  O  O51  1  0.041884  0.339794  0.020008  1
  O  O52  1  0.541033  0.188853  0.161561  1
  O  O53  1  0.958967  0.188853  0.338439  1
  O  O54  1  0.750000  0.416412  0.102689  1
  O  O55  1  0.458967  0.811147  0.661561  1
  O  O56  1  0.501428  0.380099  0.868419  1
  O  O57  1  0.025135  0.548373  0.750000  1
  O  O58  1  0.498572  0.619901  0.131581  1
  O  O59  1  0.750000  0.601983  0.639492  1
  O  O60  1  0.750000  0.601983  0.860508  1
  O  O61  1  0.250000  0.806067  0.038575  1
  O  O62  1  0.250000  0.583588  0.897311  1
  O  O63  1  0.998572  0.380099  0.631581  1
  O  O64  1  0.500000  0.000000  0.000000  1
  O  O65  1  0.458116  0.339794  0.479992  1
  O  O66  1  0.541884  0.660206  0.520008  1
  O  O67  1  0.972929  0.124096  0.825225  1
  O  O68  1  0.958967  0.188853  0.161561  1
  O  O69  1  0.974865  0.451627  0.250000  1
  O  O70  1  0.041033  0.811147  0.661561  1
  O  O71  1  0.250000  0.806067  0.461425  1
  O  O72  1  0.750000  0.193933  0.961425  1
  O  O73  1  0.750000  0.911619  0.750000  1
  O  O74  1  0.750000  0.848693  0.073132  1
  O  O75  1  0.527071  0.124096  0.825225  1
  O  O76  1  0.750000  0.702177  0.250000  1
  O  O77  1  0.541033  0.188853  0.338439  1
  O  O78  1  0.027071  0.875904  0.174775  1
  O  O79  1  0.958116  0.660206  0.979992  1
  O  O80  1  0.500000  0.000000  0.500000  1
  O  O81  1  0.472929  0.875904  0.325225  1
  O  O82  1  0.000000  0.000000  0.500000  1
  O  O83  1  0.250000  0.398017  0.360508  1
  O  O84  1  0.958116  0.660206  0.520008  1
  O  O85  1  0.250000  0.088381  0.250000  1
  O  O86  1  0.250000  0.982418  0.750000  1
  O  O87  1  0.750000  0.331116  0.750000  1
  O  O88  1  0.527071  0.124096  0.674775  1
  O  O89  1  0.750000  0.193933  0.538575  1
  O  O90  1  0.041884  0.339794  0.479992  1
  O  O91  1  0.250000  0.297823  0.750000  1
  O  O92  1  0.000000  0.000000  0.000000  1
  O  O93  1  0.041033  0.811147  0.838439  1
  O  O94  1  0.250000  0.151307  0.573132  1
  O  O95  1  0.541884  0.660206  0.979992  1
  O  O96  1  0.750000  0.848693  0.426868  1
