# generated using pymatgen
data_LiTaO3
_symmetry_space_group_name_H-M   'P 1'
_cell_length_a   5.44453838
_cell_length_b   5.44447582
_cell_length_c   3.94262259
_cell_angle_alpha   90.00000000
_cell_angle_beta   90.00000000
_cell_angle_gamma   89.99997790
_symmetry_Int_Tables_number   1
_chemical_formula_structural   LiTaO3
_chemical_formula_sum   'Li2 Ta2 O6'
_cell_volume   116.86981133
_cell_formula_units_Z   2
loop_
 _symmetry_equiv_pos_site_id
 _symmetry_equiv_pos_as_xyz
  1  'x, y, z'
loop_
 _atom_site_type_symbol
 _atom_site_label
 _atom_site_symmetry_multiplicity
 _atom_site_fract_x
 _atom_site_fract_y
 _atom_site_fract_z
 _atom_site_occupancy
  Li  Li1  1  0.000005  0.500002  0.500000  1
  Li  Li2  1  0.500001  0.000006  0.500000  1
  Ta  Ta3  1  0.999893  0.999942  0.000000  1
  Ta  Ta4  1  0.499938  0.499887  0.000000  1
  O  O5  1  0.000076  0.000044  0.500000  1
  O  O6  1  0.183906  0.683843  0.000000  1
  O  O7  1  0.316214  0.183882  0.000000  1
  O  O8  1  0.500042  0.500074  0.500000  1
  O  O9  1  0.683823  0.816159  0.000000  1
  O  O10  1  0.816180  0.316240  0.000000  1
