# generated using pymatgen
data_LiTa3O8
_symmetry_space_group_name_H-M   'P 1'
_cell_length_a   5.10594858
_cell_length_b   7.55570711
_cell_length_c   7.55570711
_cell_angle_alpha   101.77980274
_cell_angle_beta   90.67119025
_cell_angle_gamma   90.67119016
_symmetry_Int_Tables_number   1
_chemical_formula_structural   LiTa3O8
_chemical_formula_sum   'Li2 Ta6 O16'
_cell_volume   285.30381958
_cell_formula_units_Z   2
loop_
 _symmetry_equiv_pos_site_id
 _symmetry_equiv_pos_as_xyz
  1  'x, y, z'
loop_
 _atom_site_type_symbol
 _atom_site_label
 _atom_site_symmetry_multiplicity
 _atom_site_fract_x
 _atom_site_fract_y
 _atom_site_fract_z
 _atom_site_occupancy
  Li  Li1  1  0.250000  0.844756  0.155244  1
  Li  Li2  1  0.750000  0.155244  0.844756  1
  O  O3  1  0.391431  0.079421  0.686524  1
  O  O4  1  0.108569  0.313476  0.920579  1
  O  O5  1  0.608569  0.920579  0.313476  1
  O  O6  1  0.891431  0.686524  0.079421  1
  O  O7  1  0.561418  0.195572  0.098938  1
  O  O8  1  0.938582  0.901062  0.804428  1
  O  O9  1  0.438582  0.804428  0.901062  1
  O  O10  1  0.061418  0.098938  0.195572  1
  O  O11  1  0.575118  0.439614  0.792477  1
  O  O12  1  0.924882  0.207523  0.560386  1
  O  O13  1  0.424882  0.560386  0.207523  1
  O  O14  1  0.075118  0.792477  0.439614  1
  O  O15  1  0.917072  0.432314  0.302571  1
  O  O16  1  0.582928  0.697429  0.567686  1
  O  O17  1  0.082928  0.567686  0.697429  1
  O  O18  1  0.417072  0.302571  0.432314  1
  Ta  Ta19  1  0.250000  0.329948  0.670052  1
  Ta  Ta20  1  0.750000  0.670052  0.329948  1
  Ta  Ta21  1  0.255407  0.844409  0.672164  1
  Ta  Ta22  1  0.244593  0.327836  0.155591  1
  Ta  Ta23  1  0.744593  0.155591  0.327836  1
  Ta  Ta24  1  0.755407  0.672164  0.844409  1
