# generated using pymatgen
data_LiTa3O8
_symmetry_space_group_name_H-M   'P 1'
_cell_length_a   17.15251557
_cell_length_b   3.91657765
_cell_length_c   9.00765760
_cell_angle_alpha   90.01322239
_cell_angle_beta   90.00000000
_cell_angle_gamma   90.00000000
_symmetry_Int_Tables_number   1
_chemical_formula_structural   LiTa3O8
_chemical_formula_sum   'Li4 Ta12 O32'
_cell_volume   605.12684725
_cell_formula_units_Z   4
loop_
 _symmetry_equiv_pos_site_id
 _symmetry_equiv_pos_as_xyz
  1  'x, y, z'
loop_
 _atom_site_type_symbol
 _atom_site_label
 _atom_site_symmetry_multiplicity
 _atom_site_fract_x
 _atom_site_fract_y
 _atom_site_fract_z
 _atom_site_occupancy
  Li  Li1  1  0.111417  0.505499  0.062190  1
  Li  Li2  1  0.388583  0.505499  0.062190  1
  Li  Li3  1  0.611417  0.494501  0.937810  1
  Li  Li4  1  0.888583  0.494501  0.937810  1
  Ta  Ta5  1  0.059393  0.001656  0.807412  1
  Ta  Ta6  1  0.132368  0.001333  0.397035  1
  Ta  Ta7  1  0.250000  0.000553  0.687875  1
  Ta  Ta8  1  0.250000  0.003466  0.052803  1
  Ta  Ta9  1  0.367632  0.001333  0.397035  1
  Ta  Ta10  1  0.440607  0.001656  0.807412  1
  Ta  Ta11  1  0.559393  0.998344  0.192588  1
  Ta  Ta12  1  0.632368  0.998667  0.602965  1
  Ta  Ta13  1  0.750000  0.999447  0.312125  1
  Ta  Ta14  1  0.750000  0.996534  0.947197  1
  Ta  Ta15  1  0.867632  0.998667  0.602965  1
  Ta  Ta16  1  0.940607  0.998344  0.192588  1
  O  O17  1  0.000000  0.000000  0.000000  1
  O  O18  1  0.022635  0.999266  0.332462  1
  O  O19  1  0.066335  0.500942  0.841914  1
  O  O20  1  0.131692  0.500431  0.395008  1
  O  O21  1  0.131154  0.000849  0.620667  1
  O  O22  1  0.158772  0.000520  0.180672  1
  O  O23  1  0.176052  0.000852  0.877494  1
  O  O24  1  0.250000  0.000506  0.454481  1
  O  O25  1  0.250000  0.501795  0.057991  1
  O  O26  1  0.250000  0.500765  0.693444  1
  O  O27  1  0.323948  0.000852  0.877494  1
  O  O28  1  0.341228  0.000520  0.180672  1
  O  O29  1  0.368846  0.000849  0.620667  1
  O  O30  1  0.368308  0.500431  0.395008  1
  O  O31  1  0.433665  0.500942  0.841914  1
  O  O32  1  0.477365  0.999266  0.332462  1
  O  O33  1  0.500000  0.000000  0.000000  1
  O  O34  1  0.522635  0.000734  0.667538  1
  O  O35  1  0.566335  0.499058  0.158086  1
  O  O36  1  0.631692  0.499569  0.604992  1
  O  O37  1  0.631154  0.999151  0.379333  1
  O  O38  1  0.658772  0.999480  0.819328  1
  O  O39  1  0.676052  0.999148  0.122506  1
  O  O40  1  0.750000  0.999494  0.545519  1
  O  O41  1  0.750000  0.498205  0.942009  1
  O  O42  1  0.750000  0.499235  0.306556  1
  O  O43  1  0.823948  0.999148  0.122506  1
  O  O44  1  0.841228  0.999480  0.819328  1
  O  O45  1  0.868846  0.999151  0.379333  1
  O  O46  1  0.868308  0.499569  0.604992  1
  O  O47  1  0.933665  0.499058  0.158086  1
  O  O48  1  0.977365  0.000734  0.667538  1
