# generated using pymatgen
data_Li2Ta4O11
_symmetry_space_group_name_H-M   'P 1'
_cell_length_a   6.27057348
_cell_length_b   6.27057348
_cell_length_c   12.85233918
_cell_angle_alpha   75.86939966
_cell_angle_beta   104.13060034
_cell_angle_gamma   119.95348230
_symmetry_Int_Tables_number   1
_chemical_formula_structural   Li2Ta4O11
_chemical_formula_sum   'Li4 Ta8 O22'
_cell_volume   420.08908453
_cell_formula_units_Z   2
loop_
 _symmetry_equiv_pos_site_id
 _symmetry_equiv_pos_as_xyz
  1  'x, y, z'
loop_
 _atom_site_type_symbol
 _atom_site_label
 _atom_site_symmetry_multiplicity
 _atom_site_fract_x
 _atom_site_fract_y
 _atom_site_fract_z
 _atom_site_occupancy
  Li  Li1  1  0.152190  0.354337  0.446357  1
  Li  Li2  1  0.354337  0.152190  0.053643  1
  Li  Li3  1  0.645663  0.847810  0.946357  1
  Li  Li4  1  0.847810  0.645663  0.553643  1
  Ta  Ta5  1  0.249712  0.609318  0.749970  1
  Ta  Ta6  1  0.390682  0.750288  0.249970  1
  Ta  Ta7  1  0.000000  0.500000  0.000000  1
  Ta  Ta8  1  0.890764  0.890764  0.750000  1
  Ta  Ta9  1  0.109236  0.109236  0.250000  1
  Ta  Ta10  1  0.609318  0.249712  0.750030  1
  Ta  Ta11  1  0.500000  0.000000  0.500000  1
  Ta  Ta12  1  0.750288  0.390682  0.250030  1
  O  O13  1  0.249934  0.003582  0.750229  1
  O  O14  1  0.996418  0.750066  0.250229  1
  O  O15  1  0.254940  0.581262  0.907657  1
  O  O16  1  0.245659  0.734674  0.592655  1
  O  O17  1  0.593580  0.905835  0.781301  1
  O  O18  1  0.418738  0.745060  0.407657  1
  O  O19  1  0.765226  0.918075  0.592630  1
  O  O20  1  0.265326  0.754341  0.092655  1
  O  O21  1  0.094165  0.406420  0.281301  1
  O  O22  1  0.494658  0.494658  0.750000  1
  O  O23  1  0.918075  0.765226  0.907370  1
  O  O24  1  0.081925  0.234774  0.092630  1
  O  O25  1  0.505343  0.505343  0.250000  1
  O  O26  1  0.905835  0.593580  0.718699  1
  O  O27  1  0.734674  0.245659  0.907345  1
  O  O28  1  0.234774  0.081925  0.407370  1
  O  O29  1  0.581262  0.254940  0.592343  1
  O  O30  1  0.406420  0.094165  0.218699  1
  O  O31  1  0.754341  0.265326  0.407345  1
  O  O32  1  0.745060  0.418738  0.092343  1
  O  O33  1  0.003582  0.249934  0.749771  1
  O  O34  1  0.750066  0.996418  0.249771  1
