# generated using pymatgen
data_Li6Tb2O7
_symmetry_space_group_name_H-M   'P 1'
_cell_length_a   5.61590389
_cell_length_b   6.27073091
_cell_length_c   10.42028090
_cell_angle_alpha   90.00000000
_cell_angle_beta   101.02720226
_cell_angle_gamma   90.00000000
_symmetry_Int_Tables_number   1
_chemical_formula_structural   Li6Tb2O7
_chemical_formula_sum   'Li12 Tb4 O14'
_cell_volume   360.18340879
_cell_formula_units_Z   2
loop_
 _symmetry_equiv_pos_site_id
 _symmetry_equiv_pos_as_xyz
  1  'x, y, z'
loop_
 _atom_site_type_symbol
 _atom_site_label
 _atom_site_symmetry_multiplicity
 _atom_site_fract_x
 _atom_site_fract_y
 _atom_site_fract_z
 _atom_site_occupancy
  Tb  Tb1  1  0.142170  0.987809  0.866591  1
  Tb  Tb2  1  0.357830  0.487809  0.633409  1
  Tb  Tb3  1  0.642170  0.512191  0.366591  1
  Tb  Tb4  1  0.857830  0.012191  0.133409  1
  Li  Li5  1  0.459267  0.009154  0.614790  1
  Li  Li6  1  0.144557  0.743638  0.365779  1
  Li  Li7  1  0.040733  0.509154  0.885210  1
  Li  Li8  1  0.652503  0.210183  0.850450  1
  Li  Li9  1  0.644557  0.756362  0.865779  1
  Li  Li10  1  0.855443  0.256362  0.634221  1
  Li  Li11  1  0.847497  0.710183  0.649550  1
  Li  Li12  1  0.152503  0.289817  0.350450  1
  Li  Li13  1  0.347497  0.789817  0.149550  1
  Li  Li14  1  0.540733  0.990846  0.385210  1
  Li  Li15  1  0.355443  0.243638  0.134221  1
  Li  Li16  1  0.959267  0.490846  0.114790  1
  O  O17  1  0.017961  0.247256  0.994872  1
  O  O18  1  0.482039  0.747256  0.505128  1
  O  O19  1  0.759355  0.318426  0.213909  1
  O  O20  1  0.740645  0.818426  0.286091  1
  O  O21  1  0.270740  0.518947  0.241545  1
  O  O22  1  0.982039  0.752744  0.005128  1
  O  O23  1  0.770740  0.981053  0.741545  1
  O  O24  1  0.240645  0.681574  0.786091  1
  O  O25  1  0.729260  0.481053  0.758455  1
  O  O26  1  0.500000  0.000000  0.000000  1
  O  O27  1  0.517961  0.252744  0.494872  1
  O  O28  1  0.259355  0.181574  0.713909  1
  O  O29  1  0.229260  0.018947  0.258455  1
  O  O30  1  0.000000  0.500000  0.500000  1
