# generated using pymatgen
data_Li2TeO3
_symmetry_space_group_name_H-M   'P 1'
_cell_length_a   5.15122837
_cell_length_b   5.48048254
_cell_length_c   7.47721472
_cell_angle_alpha   92.38576293
_cell_angle_beta   95.08475529
_cell_angle_gamma   61.96820292
_symmetry_Int_Tables_number   1
_chemical_formula_structural   Li2TeO3
_chemical_formula_sum   'Li4 Te2 O6'
_cell_volume   185.59389475
_cell_formula_units_Z   2
loop_
 _symmetry_equiv_pos_site_id
 _symmetry_equiv_pos_as_xyz
  1  'x, y, z'
loop_
 _atom_site_type_symbol
 _atom_site_label
 _atom_site_symmetry_multiplicity
 _atom_site_fract_x
 _atom_site_fract_y
 _atom_site_fract_z
 _atom_site_occupancy
  Li  Li1  1  0.365005  0.687078  0.124891  1
  Li  Li2  1  0.052085  0.312921  0.124892  1
  Li  Li3  1  0.634995  0.312924  0.875107  1
  Li  Li4  1  0.947916  0.687081  0.875108  1
  Te  Te5  1  0.738170  -0.000013  0.297665  1
  Te  Te6  1  0.261832  0.000013  0.702333  1
  O  O7  1  0.671947  0.297791  0.149141  1
  O  O8  1  0.969729  0.702187  0.149133  1
  O  O9  1  0.370679  0.000008  0.261601  1
  O  O10  1  0.629321  0.999993  0.738398  1
  O  O11  1  0.030270  0.297815  0.850867  1
  O  O12  1  0.328054  0.702210  0.850859  1
