# generated using pymatgen
data_Li8Te2O9
_symmetry_space_group_name_H-M   'P 1'
_cell_length_a   15.74743566
_cell_length_b   9.14449341
_cell_length_c   6.02130078
_cell_angle_alpha   109.06995593
_cell_angle_beta   101.37555819
_cell_angle_gamma   85.85745780
_symmetry_Int_Tables_number   1
_chemical_formula_structural   Li8Te2O9
_chemical_formula_sum   'Li32 Te8 O36'
_cell_volume   803.36907964
_cell_formula_units_Z   4
loop_
 _symmetry_equiv_pos_site_id
 _symmetry_equiv_pos_as_xyz
  1  'x, y, z'
loop_
 _atom_site_type_symbol
 _atom_site_label
 _atom_site_symmetry_multiplicity
 _atom_site_fract_x
 _atom_site_fract_y
 _atom_site_fract_z
 _atom_site_occupancy
  Li  Li1  1  0.025829  0.128858  0.938797  1
  Li  Li2  1  0.036873  0.618500  0.713886  1
  Li  Li3  1  0.042641  0.132026  0.483889  1
  Li  Li4  1  0.047887  0.616410  0.206706  1
  Li  Li5  1  0.146018  0.409917  0.408909  1
  Li  Li6  1  0.147993  0.837531  0.122727  1
  Li  Li7  1  0.236252  0.621526  0.830728  1
  Li  Li8  1  0.261223  0.121984  0.592772  1
  Li  Li9  1  0.238057  0.624392  0.291861  1
  Li  Li10  1  0.261834  0.121819  0.053754  1
  Li  Li11  1  0.346980  0.326820  0.473064  1
  Li  Li12  1  0.360639  0.911563  0.762505  1
  Li  Li13  1  0.453234  0.635510  0.942058  1
  Li  Li14  1  0.454249  0.117009  0.657537  1
  Li  Li15  1  0.459616  0.119065  0.170903  1
  Li  Li16  1  0.474046  0.631202  0.414340  1
  Li  Li17  1  0.525954  0.368798  0.585660  1
  Li  Li18  1  0.540384  0.880935  0.829097  1
  Li  Li19  1  0.545751  0.882992  0.342463  1
  Li  Li20  1  0.546766  0.364490  0.057942  1
  Li  Li21  1  0.639361  0.088437  0.237495  1
  Li  Li22  1  0.653020  0.673180  0.526936  1
  Li  Li23  1  0.738166  0.878181  0.946246  1
  Li  Li24  1  0.761943  0.375608  0.708139  1
  Li  Li25  1  0.738777  0.878016  0.407228  1
  Li  Li26  1  0.763748  0.378474  0.169272  1
  Li  Li27  1  0.852007  0.162469  0.877273  1
  Li  Li28  1  0.853982  0.590083  0.591091  1
  Li  Li29  1  0.952113  0.383590  0.793294  1
  Li  Li30  1  0.957359  0.867974  0.516111  1
  Li  Li31  1  0.963127  0.381500  0.286114  1
  Li  Li32  1  0.974171  0.871142  0.061203  1
  Te  Te33  1  0.142614  0.371844  0.887493  1
  Te  Te34  1  0.142142  0.866840  0.637260  1
  Te  Te35  1  0.364099  0.369124  0.001587  1
  Te  Te36  1  0.352472  0.878280  0.247146  1
  Te  Te37  1  0.647528  0.121720  0.752854  1
  Te  Te38  1  0.635901  0.630876  0.998413  1
  Te  Te39  1  0.857858  0.133160  0.362740  1
  Te  Te40  1  0.857386  0.628156  0.112507  1
  O  O41  1  0.054113  0.375058  0.610399  1
  O  O42  1  0.052612  0.874974  0.828304  1
  O  O43  1  0.061456  0.880944  0.352736  1
  O  O44  1  0.054496  0.366752  0.071503  1
  O  O45  1  0.147967  0.147267  0.766685  1
  O  O46  1  0.153053  0.643005  0.526696  1
  O  O47  1  0.145735  0.598679  0.004998  1
  O  O48  1  0.257724  0.879906  0.979539  1
  O  O49  1  0.232185  0.371420  0.690311  1
  O  O50  1  0.263962  0.873906  0.435401  1
  O  O51  1  0.229980  0.365851  0.176679  1
  O  O52  1  0.357774  0.143640  0.880590  1
  O  O53  1  0.347450  0.105555  0.359367  1
  O  O54  1  0.351929  0.651587  0.124098  1
  O  O55  1  0.439396  0.380694  0.785051  1
  O  O56  1  0.443038  0.873797  0.520386  1
  O  O57  1  0.454886  0.370860  0.278754  1
  O  O58  1  0.439691  0.878413  0.053963  1
  O  O59  1  0.560309  0.121587  0.946037  1
  O  O60  1  0.545114  0.629140  0.721246  1
  O  O61  1  0.556962  0.126203  0.479614  1
  O  O62  1  0.560604  0.619306  0.214949  1
  O  O63  1  0.648071  0.348413  0.875902  1
  O  O64  1  0.652550  0.894445  0.640633  1
  O  O65  1  0.642226  0.856360  0.119410  1
  O  O66  1  0.770020  0.634149  0.823321  1
  O  O67  1  0.736038  0.126094  0.564599  1
  O  O68  1  0.767815  0.628580  0.309689  1
  O  O69  1  0.742276  0.120094  0.020461  1
  O  O70  1  0.846947  0.356995  0.473304  1
  O  O71  1  0.852033  0.852733  0.233315  1
  O  O72  1  0.854265  0.401321  0.995002  1
  O  O73  1  0.945504  0.633248  0.928497  1
  O  O74  1  0.938544  0.119056  0.647264  1
  O  O75  1  0.947388  0.125026  0.171696  1
  O  O76  1  0.945887  0.624942  0.389601  1
