# generated using pymatgen
data_LiTeO3
_symmetry_space_group_name_H-M   'P 1'
_cell_length_a   5.34144840
_cell_length_b   5.17812149
_cell_length_c   8.96091138
_cell_angle_alpha   90.00000000
_cell_angle_beta   90.00000000
_cell_angle_gamma   90.00000000
_symmetry_Int_Tables_number   1
_chemical_formula_structural   LiTeO3
_chemical_formula_sum   'Li4 Te4 O12'
_cell_volume   247.84687954
_cell_formula_units_Z   4
loop_
 _symmetry_equiv_pos_site_id
 _symmetry_equiv_pos_as_xyz
  1  'x, y, z'
loop_
 _atom_site_type_symbol
 _atom_site_label
 _atom_site_symmetry_multiplicity
 _atom_site_fract_x
 _atom_site_fract_y
 _atom_site_fract_z
 _atom_site_occupancy
  Li  Li1  1  0.000000  0.000000  0.687650  1
  Li  Li2  1  0.000000  0.500000  0.826091  1
  Li  Li3  1  0.500000  0.000000  0.326091  1
  Li  Li4  1  0.500000  0.500000  0.187650  1
  Te  Te5  1  0.000000  0.000000  0.102203  1
  Te  Te6  1  0.000000  0.500000  0.411774  1
  Te  Te7  1  0.500000  0.000000  0.911774  1
  Te  Te8  1  0.500000  0.500000  0.602203  1
  O  O9  1  0.172913  0.289359  0.266984  1
  O  O10  1  0.153722  0.294922  0.575492  1
  O  O11  1  0.187103  0.207881  0.928935  1
  O  O12  1  0.312897  0.707881  0.428935  1
  O  O13  1  0.346278  0.794922  0.075492  1
  O  O14  1  0.327086  0.789359  0.766984  1
  O  O15  1  0.672913  0.210641  0.766984  1
  O  O16  1  0.653722  0.205078  0.075492  1
  O  O17  1  0.687103  0.292119  0.428935  1
  O  O18  1  0.812897  0.792119  0.928935  1
  O  O19  1  0.846278  0.705078  0.575492  1
  O  O20  1  0.827087  0.710641  0.266984  1
