# generated using pymatgen
data_Li2Te2O5
_symmetry_space_group_name_H-M   'P 1'
_cell_length_a   4.86816905
_cell_length_b   10.60825930
_cell_length_c   11.08101604
_cell_angle_alpha   110.97947923
_cell_angle_beta   90.00000000
_cell_angle_gamma   90.00000000
_symmetry_Int_Tables_number   1
_chemical_formula_structural   Li2Te2O5
_chemical_formula_sum   'Li8 Te8 O20'
_cell_volume   534.31919355
_cell_formula_units_Z   4
loop_
 _symmetry_equiv_pos_site_id
 _symmetry_equiv_pos_as_xyz
  1  'x, y, z'
loop_
 _atom_site_type_symbol
 _atom_site_label
 _atom_site_symmetry_multiplicity
 _atom_site_fract_x
 _atom_site_fract_y
 _atom_site_fract_z
 _atom_site_occupancy
  Li  Li1  1  0.818757  0.252366  0.175485  1
  Li  Li2  1  0.318757  0.247634  0.324515  1
  Li  Li3  1  0.181243  0.747634  0.824515  1
  Li  Li4  1  0.681243  0.752366  0.675485  1
  Li  Li5  1  0.706159  0.414282  0.490601  1
  Li  Li6  1  0.206159  0.085718  0.009399  1
  Li  Li7  1  0.293841  0.585718  0.509399  1
  Li  Li8  1  0.793841  0.914282  0.990601  1
  O  O9  1  0.983928  0.833205  0.454524  1
  O  O10  1  0.483928  0.666795  0.045476  1
  O  O11  1  0.016072  0.166795  0.545476  1
  O  O12  1  0.516072  0.333205  0.954524  1
  O  O13  1  0.823334  0.944393  0.711941  1
  O  O14  1  0.323334  0.555607  0.788059  1
  O  O15  1  0.176666  0.055607  0.288059  1
  O  O16  1  0.676666  0.444393  0.211941  1
  O  O17  1  0.770082  0.732342  0.843552  1
  O  O18  1  0.270082  0.767658  0.656448  1
  O  O19  1  0.229918  0.267658  0.156448  1
  O  O20  1  0.729918  0.232342  0.343552  1
  O  O21  1  0.674304  0.930388  0.169803  1
  O  O22  1  0.174304  0.569612  0.330197  1
  O  O23  1  0.325696  0.069612  0.830197  1
  O  O24  1  0.825696  0.430388  0.669803  1
  O  O25  1  0.714191  0.605521  0.494536  1
  O  O26  1  0.214191  0.894479  0.005464  1
  O  O27  1  0.285809  0.394479  0.505464  1
  O  O28  1  0.785809  0.105521  0.994536  1
  Te  Te29  1  0.830039  0.074926  0.374861  1
  Te  Te30  1  0.330039  0.425074  0.125139  1
  Te  Te31  1  0.169961  0.925074  0.625139  1
  Te  Te32  1  0.669961  0.574926  0.874861  1
  Te  Te33  1  0.818957  0.649704  0.351068  1
  Te  Te34  1  0.318957  0.850296  0.148932  1
  Te  Te35  1  0.181043  0.350296  0.648932  1
  Te  Te36  1  0.681043  0.149704  0.851068  1
