# generated using pymatgen
data_Li6TeO6
_symmetry_space_group_name_H-M   'P 1'
_cell_length_a   5.82490717
_cell_length_b   5.67189426
_cell_length_c   5.81781008
_cell_angle_alpha   120.83544723
_cell_angle_beta   120.08336487
_cell_angle_gamma   59.12476476
_symmetry_Int_Tables_number   1
_chemical_formula_structural   Li6TeO6
_chemical_formula_sum   'Li6 Te1 O6'
_cell_volume   134.04698866
_cell_formula_units_Z   1
loop_
 _symmetry_equiv_pos_site_id
 _symmetry_equiv_pos_as_xyz
  1  'x, y, z'
loop_
 _atom_site_type_symbol
 _atom_site_label
 _atom_site_symmetry_multiplicity
 _atom_site_fract_x
 _atom_site_fract_y
 _atom_site_fract_z
 _atom_site_occupancy
  Li  Li1  1  0.283006  0.310609  0.514812  1
  Li  Li2  1  0.080230  0.688643  0.282820  1
  Li  Li3  1  0.512695  0.690679  0.918978  1
  Li  Li4  1  0.487305  0.309321  0.081022  1
  Li  Li5  1  0.919770  0.311357  0.717180  1
  Li  Li6  1  0.716994  0.689391  0.485188  1
  Te  Te7  1  0.000000  0.000000  0.000000  1
  O  O8  1  0.103125  0.752280  0.653023  1
  O  O9  1  0.203301  0.246727  0.104484  1
  O  O10  1  0.653866  0.249162  0.797856  1
  O  O11  1  0.346134  0.750838  0.202144  1
  O  O12  1  0.796699  0.753273  0.895516  1
  O  O13  1  0.896875  0.247720  0.346977  1
