# generated using pymatgen
data_Li6Te2O9
_symmetry_space_group_name_H-M   'P 1'
_cell_length_a   16.25152945
_cell_length_b   8.73946917
_cell_length_c   6.02968069
_cell_angle_alpha   109.66729241
_cell_angle_beta   100.39918714
_cell_angle_gamma   85.56676075
_symmetry_Int_Tables_number   1
_chemical_formula_structural   Li6Te2O9
_chemical_formula_sum   'Li24 Te8 O36'
_cell_volume   793.06131866
_cell_formula_units_Z   4
loop_
 _symmetry_equiv_pos_site_id
 _symmetry_equiv_pos_as_xyz
  1  'x, y, z'
loop_
 _atom_site_type_symbol
 _atom_site_label
 _atom_site_symmetry_multiplicity
 _atom_site_fract_x
 _atom_site_fract_y
 _atom_site_fract_z
 _atom_site_occupancy
  Li  Li1  1  0.012130  0.145209  0.964661  1
  Li  Li2  1  0.030023  0.131888  0.454619  1
  Li  Li3  1  0.085182  0.475645  0.398031  1
  Li  Li4  1  0.147929  0.839208  0.139714  1
  Li  Li5  1  0.231330  0.629009  0.820219  1
  Li  Li6  1  0.268266  0.118930  0.588404  1
  Li  Li7  1  0.230095  0.625063  0.294612  1
  Li  Li8  1  0.269459  0.114364  0.050458  1
  Li  Li9  1  0.363158  0.318725  0.466212  1
  Li  Li10  1  0.420756  0.968982  0.827832  1
  Li  Li11  1  0.470930  0.635962  0.928461  1
  Li  Li12  1  0.484000  0.631773  0.435441  1
  Li  Li13  1  0.516000  0.368227  0.564559  1
  Li  Li14  1  0.529070  0.364038  0.071539  1
  Li  Li15  1  0.579244  0.031018  0.172168  1
  Li  Li16  1  0.636842  0.681275  0.533788  1
  Li  Li17  1  0.730541  0.885636  0.949542  1
  Li  Li18  1  0.769905  0.374937  0.705388  1
  Li  Li19  1  0.731734  0.881070  0.411596  1
  Li  Li20  1  0.768670  0.370991  0.179781  1
  Li  Li21  1  0.852071  0.160792  0.860286  1
  Li  Li22  1  0.914818  0.524355  0.601969  1
  Li  Li23  1  0.969977  0.868112  0.545381  1
  Li  Li24  1  0.987870  0.854791  0.035339  1
  Te  Te25  1  0.147105  0.369842  0.882878  1
  Te  Te26  1  0.146602  0.887154  0.667511  1
  Te  Te27  1  0.352165  0.385499  0.996402  1
  Te  Te28  1  0.351825  0.867487  0.264712  1
  Te  Te29  1  0.648175  0.132513  0.735288  1
  Te  Te30  1  0.647835  0.614501  0.003598  1
  Te  Te31  1  0.853398  0.112846  0.332489  1
  Te  Te32  1  0.852895  0.630158  0.117122  1
  O  O33  1  0.073581  0.343427  0.594359  1
  O  O34  1  0.057173  0.914417  0.842393  1
  O  O35  1  0.074206  0.910198  0.390741  1
  O  O36  1  0.081245  0.327825  0.078392  1
  O  O37  1  0.178615  0.120267  0.763142  1
  O  O38  1  0.160482  0.660018  0.537389  1
  O  O39  1  0.147269  0.596459  0.000422  1
  O  O40  1  0.228625  0.884961  0.940557  1
  O  O41  1  0.253020  0.375864  0.727277  1
  O  O42  1  0.249556  0.866915  0.397561  1
  O  O43  1  0.255830  0.374329  0.159254  1
  O  O44  1  0.356294  0.157800  0.884313  1
  O  O45  1  0.335618  0.094777  0.343681  1
  O  O46  1  0.323475  0.626726  0.100024  1
  O  O47  1  0.428265  0.413896  0.804799  1
  O  O48  1  0.428771  0.834521  0.512078  1
  O  O49  1  0.433609  0.412142  0.282759  1
  O  O50  1  0.418550  0.843420  0.031230  1
  O  O51  1  0.581450  0.156580  0.968770  1
  O  O52  1  0.566391  0.587858  0.717241  1
  O  O53  1  0.571229  0.165479  0.487922  1
  O  O54  1  0.571735  0.586104  0.195201  1
  O  O55  1  0.676525  0.373275  0.899976  1
  O  O56  1  0.664382  0.905223  0.656319  1
  O  O57  1  0.643706  0.842200  0.115687  1
  O  O58  1  0.744170  0.625671  0.840746  1
  O  O59  1  0.750444  0.133085  0.602439  1
  O  O60  1  0.746980  0.624136  0.272723  1
  O  O61  1  0.771375  0.115039  0.059443  1
  O  O62  1  0.839518  0.339982  0.462611  1
  O  O63  1  0.821385  0.879733  0.236858  1
  O  O64  1  0.852731  0.403541  0.999578  1
  O  O65  1  0.918755  0.672175  0.921608  1
  O  O66  1  0.925794  0.089802  0.609259  1
  O  O67  1  0.942827  0.085583  0.157607  1
  O  O68  1  0.926419  0.656573  0.405641  1
