# generated using pymatgen
data_Li4TeO5
_symmetry_space_group_name_H-M   'P 1'
_cell_length_a   5.18559266
_cell_length_b   5.25848522
_cell_length_c   7.86604639
_cell_angle_alpha   107.54004090
_cell_angle_beta   102.04751018
_cell_angle_gamma   101.86486237
_symmetry_Int_Tables_number   1
_chemical_formula_structural   Li4TeO5
_chemical_formula_sum   'Li8 Te2 O10'
_cell_volume   191.54587750
_cell_formula_units_Z   2
loop_
 _symmetry_equiv_pos_site_id
 _symmetry_equiv_pos_as_xyz
  1  'x, y, z'
loop_
 _atom_site_type_symbol
 _atom_site_label
 _atom_site_symmetry_multiplicity
 _atom_site_fract_x
 _atom_site_fract_y
 _atom_site_fract_z
 _atom_site_occupancy
  Li  Li1  1  0.423023  0.801509  0.317350  1
  Li  Li2  1  0.576977  0.198491  0.682650  1
  Li  Li3  1  0.000000  0.000000  0.500000  1
  Li  Li4  1  0.500000  0.000000  0.000000  1
  Li  Li5  1  0.225755  0.393277  0.887926  1
  Li  Li6  1  0.774245  0.606723  0.112074  1
  Li  Li7  1  0.295497  0.614591  0.604097  1
  Li  Li8  1  0.704503  0.385409  0.395903  1
  O  O9  1  0.576217  0.610031  0.846829  1
  O  O10  1  0.423783  0.389969  0.153171  1
  O  O11  1  0.050959  0.558557  0.329375  1
  O  O12  1  0.949041  0.441443  0.670625  1
  O  O13  1  0.132069  0.831674  0.044257  1
  O  O14  1  0.867931  0.168326  0.955743  1
  O  O15  1  0.218101  0.990652  0.750575  1
  O  O16  1  0.781899  0.009348  0.249425  1
  O  O17  1  0.335803  0.180917  0.426514  1
  O  O18  1  0.664197  0.819083  0.573486  1
  Te  Te19  1  0.891192  0.790353  0.788435  1
  Te  Te20  1  0.108808  0.209647  0.211565  1
