# generated using pymatgen
data_Li8TeO6
_symmetry_space_group_name_H-M   'P 1'
_cell_length_a   5.61448526
_cell_length_b   6.23287435
_cell_length_c   5.59353033
_cell_angle_alpha   116.92985723
_cell_angle_beta   119.79728116
_cell_angle_gamma   63.26628888
_symmetry_Int_Tables_number   1
_chemical_formula_structural   Li8TeO6
_chemical_formula_sum   'Li8 Te1 O6'
_cell_volume   144.91058154
_cell_formula_units_Z   1
loop_
 _symmetry_equiv_pos_site_id
 _symmetry_equiv_pos_as_xyz
  1  'x, y, z'
loop_
 _atom_site_type_symbol
 _atom_site_label
 _atom_site_symmetry_multiplicity
 _atom_site_fract_x
 _atom_site_fract_y
 _atom_site_fract_z
 _atom_site_occupancy
  Li  Li1  1  0.229256  0.362631  0.490263  1
  Li  Li2  1  0.103271  0.636942  0.229974  1
  Li  Li3  1  0.489659  0.633696  0.895844  1
  Li  Li4  1  0.353749  0.958162  0.661677  1
  Li  Li5  1  0.646251  0.041838  0.338323  1
  Li  Li6  1  0.510341  0.366304  0.104156  1
  Li  Li7  1  0.896729  0.363058  0.770026  1
  Li  Li8  1  0.770744  0.637369  0.509737  1
  Te  Te9  1  0.000000  0.000000  0.000000  1
  O  O10  1  0.098768  0.745922  0.606332  1
  O  O11  1  0.241405  0.249309  0.092931  1
  O  O12  1  0.605402  0.249871  0.758799  1
  O  O13  1  0.394598  0.750129  0.241201  1
  O  O14  1  0.758595  0.750691  0.907069  1
  O  O15  1  0.901232  0.254078  0.393668  1
