# generated using pymatgen
data_Li4Ti9O20
_symmetry_space_group_name_H-M   'P 1'
_cell_length_a   10.54412534
_cell_length_b   10.54412534
_cell_length_c   10.54412534
_cell_angle_alpha   99.05350247
_cell_angle_beta   99.05350247
_cell_angle_gamma   133.25815167
_symmetry_Int_Tables_number   1
_chemical_formula_structural   Li4Ti9O20
_chemical_formula_sum   'Li8 Ti18 O40'
_cell_volume   783.69677838
_cell_formula_units_Z   2
loop_
 _symmetry_equiv_pos_site_id
 _symmetry_equiv_pos_as_xyz
  1  'x, y, z'
loop_
 _atom_site_type_symbol
 _atom_site_label
 _atom_site_symmetry_multiplicity
 _atom_site_fract_x
 _atom_site_fract_y
 _atom_site_fract_z
 _atom_site_occupancy
  Li  Li1  1  0.800379  0.141024  0.067229  1
  Li  Li2  1  0.641024  0.073794  0.340645  1
  Li  Li3  1  0.233150  0.300379  0.159355  1
  Li  Li4  1  0.426206  0.266850  0.567229  1
  Li  Li5  1  0.573794  0.733150  0.432771  1
  Li  Li6  1  0.766850  0.699621  0.840645  1
  Li  Li7  1  0.358976  0.926206  0.659355  1
  Li  Li8  1  0.199621  0.858976  0.932771  1
  Ti  Ti9  1  0.795659  0.387040  0.215440  1
  Ti  Ti10  1  0.919780  0.704341  0.091381  1
  Ti  Ti11  1  0.887040  0.171600  0.591381  1
  Ti  Ti12  1  0.375000  0.125000  0.250000  1
  Ti  Ti13  1  0.671600  0.580220  0.284560  1
  Ti  Ti14  1  0.789459  0.371394  0.691202  1
  Ti  Ti15  1  0.819810  0.901743  0.191202  1
  Ti  Ti16  1  0.401743  0.710541  0.081935  1
  Ti  Ti17  1  0.871394  0.680190  0.581935  1
  Ti  Ti18  1  0.128606  0.319810  0.418065  1
  Ti  Ti19  1  0.598257  0.289459  0.918065  1
  Ti  Ti20  1  0.210541  0.628606  0.308798  1
  Ti  Ti21  1  0.180190  0.098257  0.808798  1
  Ti  Ti22  1  0.328400  0.419780  0.715440  1
  Ti  Ti23  1  0.625000  0.875000  0.750000  1
  Ti  Ti24  1  0.080220  0.295659  0.908619  1
  Ti  Ti25  1  0.112960  0.828400  0.408619  1
  Ti  Ti26  1  0.204341  0.612960  0.784560  1
  O  O27  1  0.048372  0.154495  0.244605  1
  O  O28  1  0.711682  0.248656  0.024847  1
  O  O29  1  0.956027  0.370355  0.274476  1
  O  O30  1  0.870355  0.095879  0.414329  1
  O  O31  1  0.580152  0.180234  0.244010  1
  O  O32  1  0.681352  0.465806  0.112473  1
  O  O33  1  0.748656  0.223810  0.536974  1
  O  O34  1  0.813165  0.788318  0.036974  1
  O  O35  1  0.853333  0.568878  0.387527  1
  O  O36  1  0.319766  0.063776  0.399919  1
  O  O37  1  0.836141  0.080152  0.899919  1
  O  O38  1  0.965806  0.353333  0.784454  1
  O  O39  1  0.931122  0.818648  0.284454  1
  O  O40  1  0.436224  0.336142  0.255990  1
  O  O41  1  0.181550  0.456027  0.085671  1
  O  O42  1  0.595879  0.681550  0.225524  1
  O  O43  1  0.654495  0.909890  0.106122  1
  O  O44  1  0.696233  0.451628  0.606122  1
  O  O45  1  0.590110  0.196233  0.744605  1
  O  O46  1  0.723810  0.686835  0.475153  1
  O  O47  1  0.276190  0.313165  0.524847  1
  O  O48  1  0.409890  0.803767  0.255395  1
  O  O49  1  0.303767  0.548372  0.393878  1
  O  O50  1  0.345505  0.090110  0.893878  1
  O  O51  1  0.404121  0.318450  0.774476  1
  O  O52  1  0.818450  0.543973  0.914329  1
  O  O53  1  0.563776  0.663859  0.744010  1
  O  O54  1  0.034194  0.646667  0.215546  1
  O  O55  1  0.068878  0.181352  0.715546  1
  O  O56  1  0.163858  0.919848  0.100081  1
  O  O57  1  0.680234  0.936224  0.600081  1
  O  O58  1  0.146667  0.431122  0.612473  1
  O  O59  1  0.251344  0.776190  0.463026  1
  O  O60  1  0.186835  0.211682  0.963026  1
  O  O61  1  0.318648  0.534194  0.887527  1
  O  O62  1  0.419848  0.819766  0.755990  1
  O  O63  1  0.129645  0.904121  0.585671  1
  O  O64  1  0.043973  0.629645  0.725524  1
  O  O65  1  0.288318  0.751344  0.975153  1
  O  O66  1  0.951628  0.845505  0.755395  1
