# generated using pymatgen
data_LiTiO2
_symmetry_space_group_name_H-M   'P 1'
_cell_length_a   7.76340881
_cell_length_b   8.74184277
_cell_length_c   10.49871206
_cell_angle_alpha   114.68237188
_cell_angle_beta   80.63748938
_cell_angle_gamma   101.25833029
_symmetry_Int_Tables_number   1
_chemical_formula_structural   LiTiO2
_chemical_formula_sum   'Li16 Ti16 O32'
_cell_volume   632.31692799
_cell_formula_units_Z   16
loop_
 _symmetry_equiv_pos_site_id
 _symmetry_equiv_pos_as_xyz
  1  'x, y, z'
loop_
 _atom_site_type_symbol
 _atom_site_label
 _atom_site_symmetry_multiplicity
 _atom_site_fract_x
 _atom_site_fract_y
 _atom_site_fract_z
 _atom_site_occupancy
  Li  Li1  1  0.093139  0.991229  0.257466  1
  Li  Li2  1  0.233712  0.599852  0.755892  1
  Li  Li3  1  0.646578  0.777354  0.992150  1
  Li  Li4  1  0.491266  0.852580  0.511155  1
  Li  Li5  1  0.248333  0.919102  0.743967  1
  Li  Li6  1  0.152565  0.281242  0.499137  1
  Li  Li7  1  0.586708  0.489186  0.761227  1
  Li  Li8  1  0.501194  0.165570  0.499517  1
  Li  Li9  1  0.403086  0.522994  0.237504  1
  Li  Li10  1  0.836767  0.740465  0.519008  1
  Li  Li11  1  0.748623  0.414680  0.248563  1
  Li  Li12  1  0.756695  0.764986  0.245661  1
  Li  Li13  1  0.338619  0.242066  0.014108  1
  Li  Li14  1  0.905721  0.026308  0.741726  1
  Li  Li15  1  0.737174  0.104322  0.257063  1
  Li  Li16  1  0.991089  0.358373  0.012497  1
  Ti  Ti17  1  0.311333  0.893051  0.994295  1
  Ti  Ti18  1  0.170475  0.955260  0.504752  1
  Ti  Ti19  1  0.309999  0.552799  0.986942  1
  Ti  Ti20  1  0.172901  0.622906  0.498819  1
  Ti  Ti21  1  0.562153  0.803026  0.742980  1
  Ti  Ti22  1  0.077948  0.654261  0.259171  1
  Ti  Ti23  1  0.415993  0.870339  0.261042  1
  Ti  Ti24  1  0.918541  0.714004  0.771480  1
  Ti  Ti25  1  0.066453  0.304980  0.244994  1
  Ti  Ti26  1  0.566449  0.146353  0.749864  1
  Ti  Ti27  1  0.917794  0.371909  0.761682  1
  Ti  Ti28  1  0.418231  0.214220  0.265294  1
  Ti  Ti29  1  0.817946  0.397070  0.499390  1
  Ti  Ti30  1  0.682929  0.465118  0.009717  1
  Ti  Ti31  1  0.826925  0.062795  0.497582  1
  Ti  Ti32  1  0.674497  0.123054  0.003083  1
  O  O33  1  0.122290  0.810282  0.876105  1
  O  O34  1  0.041370  0.831674  0.632653  1
  O  O35  1  0.443323  0.678248  0.868114  1
  O  O36  1  0.038501  0.495311  0.627471  1
  O  O37  1  0.126134  0.456706  0.872338  1
  O  O38  1  0.772057  0.906847  0.872666  1
  O  O39  1  0.698246  0.935168  0.622192  1
  O  O40  1  0.309381  0.736594  0.376292  1
  O  O41  1  0.371828  0.714472  0.625379  1
  O  O42  1  0.025476  0.160080  0.623184  1
  O  O43  1  0.470715  0.363265  0.888892  1
  O  O44  1  0.207852  0.777199  0.130665  1
  O  O45  1  0.537220  0.993549  0.126162  1
  O  O46  1  0.628118  0.958721  0.369652  1
  O  O47  1  0.789571  0.586895  0.883279  1
  O  O48  1  0.275113  0.406572  0.372720  1
  O  O49  1  0.716283  0.612520  0.636796  1
  O  O50  1  0.196858  0.435325  0.121796  1
  O  O51  1  0.371940  0.053282  0.628792  1
  O  O52  1  0.443705  0.027972  0.880066  1
  O  O53  1  0.797842  0.240132  0.878229  1
  O  O54  1  0.532501  0.661183  0.122293  1
  O  O55  1  0.954085  0.858837  0.376624  1
  O  O56  1  0.618334  0.303027  0.381583  1
  O  O57  1  0.694993  0.278396  0.629652  1
  O  O58  1  0.292350  0.088027  0.385486  1
  O  O59  1  0.215202  0.110872  0.134833  1
  O  O60  1  0.858990  0.557069  0.140191  1
  O  O61  1  0.942334  0.528422  0.380641  1
  O  O62  1  0.542543  0.331589  0.135417  1
  O  O63  1  0.949279  0.181800  0.370605  1
  O  O64  1  0.870743  0.213738  0.125840  1
