# generated using pymatgen
data_LiTi2O4
_symmetry_space_group_name_H-M   'P 1'
_cell_length_a   8.93800041
_cell_length_b   8.90499292
_cell_length_c   10.45198532
_cell_angle_alpha   89.93083445
_cell_angle_beta   90.15645864
_cell_angle_gamma   60.10537819
_symmetry_Int_Tables_number   1
_chemical_formula_structural   LiTi2O4
_chemical_formula_sum   'Li9 Ti18 O36'
_cell_volume   721.20715790
_cell_formula_units_Z   9
loop_
 _symmetry_equiv_pos_site_id
 _symmetry_equiv_pos_as_xyz
  1  'x, y, z'
loop_
 _atom_site_type_symbol
 _atom_site_label
 _atom_site_symmetry_multiplicity
 _atom_site_fract_x
 _atom_site_fract_y
 _atom_site_fract_z
 _atom_site_occupancy
  Li  Li1  1  0.228072  0.884692  0.230743  1
  Li  Li2  1  0.604271  0.611862  0.726440  1
  Li  Li3  1  0.889980  0.553803  0.231127  1
  Li  Li4  1  0.048922  0.554136  0.751097  1
  Li  Li5  1  0.384332  0.400116  0.266811  1
  Li  Li6  1  0.112457  0.103319  0.770815  1
  Li  Li7  1  0.444879  0.104569  0.773273  1
  Li  Li8  1  0.773106  0.111189  0.776076  1
  Li  Li9  1  0.735154  0.046641  0.276423  1
  Ti  Ti10  1  0.334549  0.000638  0.007230  1
  Ti  Ti11  1  0.501057  0.833523  0.488390  1
  Ti  Ti12  1  0.167219  0.826432  0.512660  1
  Ti  Ti13  1  0.832825  0.831205  0.512239  1
  Ti  Ti14  1  0.332037  0.667025  0.982493  1
  Ti  Ti15  1  0.999308  0.672899  0.008847  1
  Ti  Ti16  1  0.664906  0.673341  0.002507  1
  Ti  Ti17  1  0.167854  0.498519  0.494451  1
  Ti  Ti18  1  0.500940  0.499530  0.497215  1
  Ti  Ti19  1  0.835394  0.498206  0.506748  1
  Ti  Ti20  1  0.326625  0.334123  0.994337  1
  Ti  Ti21  1  0.002660  0.334309  0.996511  1
  Ti  Ti22  1  0.670074  0.336334  0.005697  1
  Ti  Ti23  1  0.167093  0.173897  0.488567  1
  Ti  Ti24  1  0.835685  0.170468  0.497272  1
  Ti  Ti25  1  0.499213  0.168118  0.502919  1
  Ti  Ti26  1  0.996294  0.002254  0.006744  1
  Ti  Ti27  1  0.665113  0.995497  0.005092  1
  O  O28  1  0.618492  0.947159  0.401955  1
  O  O29  1  0.273513  0.941542  0.401045  1
  O  O30  1  0.940851  0.944333  0.406600  1
  O  O31  1  0.550069  0.896056  0.898081  1
  O  O32  1  0.216304  0.897909  0.898298  1
  O  O33  1  0.883591  0.896531  0.903548  1
  O  O34  1  0.438386  0.776545  0.096997  1
  O  O35  1  0.121459  0.777083  0.100595  1
  O  O36  1  0.782782  0.771866  0.110331  1
  O  O37  1  0.396996  0.719373  0.599591  1
  O  O38  1  0.056400  0.713474  0.607564  1
  O  O39  1  0.714482  0.720730  0.605350  1
  O  O40  1  0.279845  0.610180  0.396103  1
  O  O41  1  0.615258  0.609833  0.401395  1
  O  O42  1  0.940625  0.612726  0.402003  1
  O  O43  1  0.211184  0.557320  0.895754  1
  O  O44  1  0.559575  0.555958  0.897355  1
  O  O45  1  0.891303  0.558847  0.899717  1
  O  O46  1  0.108714  0.447529  0.103892  1
  O  O47  1  0.440925  0.444781  0.091873  1
  O  O48  1  0.781498  0.446465  0.099812  1
  O  O49  1  0.057796  0.389683  0.603369  1
  O  O50  1  0.388394  0.388691  0.595814  1
  O  O51  1  0.719244  0.392369  0.603943  1
  O  O52  1  0.286498  0.278068  0.391853  1
  O  O53  1  0.941566  0.282559  0.400990  1
  O  O54  1  0.609846  0.272496  0.392027  1
  O  O55  1  0.225592  0.212678  0.887253  1
  O  O56  1  0.890043  0.214986  0.893898  1
  O  O57  1  0.559956  0.214266  0.896774  1
  O  O58  1  0.114942  0.105385  0.102706  1
  O  O59  1  0.775536  0.111199  0.106079  1
  O  O60  1  0.443230  0.115367  0.099652  1
  O  O61  1  0.056072  0.059084  0.600230  1
  O  O62  1  0.720859  0.060241  0.606422  1
  O  O63  1  0.388121  0.057261  0.598532  1
