# generated using pymatgen
data_LiTi2O4
_symmetry_space_group_name_H-M   'P 1'
_cell_length_a   8.24631681
_cell_length_b   3.85105103
_cell_length_c   9.05297881
_cell_angle_alpha   90.00047386
_cell_angle_beta   89.96343100
_cell_angle_gamma   89.99978241
_symmetry_Int_Tables_number   1
_chemical_formula_structural   LiTi2O4
_chemical_formula_sum   'Li4 Ti8 O16'
_cell_volume   287.49527030
_cell_formula_units_Z   4
loop_
 _symmetry_equiv_pos_site_id
 _symmetry_equiv_pos_as_xyz
  1  'x, y, z'
loop_
 _atom_site_type_symbol
 _atom_site_label
 _atom_site_symmetry_multiplicity
 _atom_site_fract_x
 _atom_site_fract_y
 _atom_site_fract_z
 _atom_site_occupancy
  Li  Li1  1  0.996743  0.000004  0.026823  1
  Li  Li2  1  0.003264  0.499995  0.223233  1
  Li  Li3  1  0.250720  0.500003  0.532842  1
  Li  Li4  1  0.749276  0.999997  0.717158  1
  Ti  Ti5  1  0.275663  0.999981  0.255271  1
  Ti  Ti6  1  0.738186  0.999988  0.266884  1
  Ti  Ti7  1  0.987060  0.999983  0.484894  1
  Ti  Ti8  1  0.509894  0.999988  0.488000  1
  Ti  Ti9  1  0.490115  0.500012  0.762013  1
  Ti  Ti10  1  0.012922  0.500014  0.765103  1
  Ti  Ti11  1  0.261814  0.500012  0.983127  1
  Ti  Ti12  1  0.724342  0.500017  0.994740  1
  O  O13  1  0.241490  0.000005  0.024696  1
  O  O14  1  0.753469  0.000008  0.028639  1
  O  O15  1  0.246533  0.499995  0.221351  1
  O  O16  1  0.758514  0.499996  0.225277  1
  O  O17  1  0.502405  0.000026  0.265863  1
  O  O18  1  0.001082  -0.000000  0.270041  1
  O  O19  1  0.248978  0.000006  0.467428  1
  O  O20  1  0.751583  0.000009  0.489393  1
  O  O21  1  0.007513  0.500014  0.524558  1
  O  O22  1  0.492244  0.500011  0.526838  1
  O  O23  1  0.507750  0.999987  0.723146  1
  O  O24  1  0.992479  0.999979  0.725403  1
  O  O25  1  0.248407  0.499990  0.760646  1
  O  O26  1  0.751012  0.499993  0.782570  1
  O  O27  1  0.998938  0.500000  0.979933  1
  O  O28  1  0.497593  0.499978  0.984129  1
