# generated using pymatgen
data_Li4Ti7O16
_symmetry_space_group_name_H-M   'P 1'
_cell_length_a   5.84963015
_cell_length_b   9.70109277
_cell_length_c   5.84963015
_cell_angle_alpha   90.02713867
_cell_angle_beta   60.98300989
_cell_angle_gamma   90.02713867
_symmetry_Int_Tables_number   1
_chemical_formula_structural   Li4Ti7O16
_chemical_formula_sum   'Li4 Ti7 O16'
_cell_volume   290.28544200
_cell_formula_units_Z   1
loop_
 _symmetry_equiv_pos_site_id
 _symmetry_equiv_pos_as_xyz
  1  'x, y, z'
loop_
 _atom_site_type_symbol
 _atom_site_label
 _atom_site_symmetry_multiplicity
 _atom_site_fract_x
 _atom_site_fract_y
 _atom_site_fract_z
 _atom_site_occupancy
  Li  Li1  1  0.339746  0.038947  0.089746  1
  Li  Li2  1  0.357614  0.356094  0.107614  1
  Li  Li3  1  0.838766  0.456450  0.095078  1
  Li  Li4  1  0.345078  0.456450  0.588766  1
  Ti  Ti5  1  0.139960  0.632906  0.375019  1
  Ti  Ti6  1  0.860753  0.142635  0.097818  1
  Ti  Ti7  1  0.347818  0.142635  0.610753  1
  Ti  Ti8  1  0.117652  0.854759  0.867652  1
  Ti  Ti9  1  0.654243  0.867053  0.404243  1
  Ti  Ti10  1  0.855374  0.358228  0.605374  1
  Ti  Ti11  1  0.625019  0.632906  0.889960  1
  O  O12  1  0.013367  0.470224  0.291258  1
  O  O13  1  0.284236  0.721227  0.034236  1
  O  O14  1  0.210531  0.281495  0.497214  1
  O  O15  1  0.481690  0.545168  0.231690  1
  O  O16  1  0.527737  0.036139  0.277737  1
  O  O17  1  0.020065  0.030633  0.770065  1
  O  O18  1  0.783745  0.774237  0.043265  1
  O  O19  1  0.293265  0.774237  0.533745  1
  O  O20  1  0.712797  0.226978  0.462797  1
  O  O21  1  0.216645  0.204454  0.966645  1
  O  O22  1  0.980404  0.960598  0.217580  1
  O  O23  1  0.467580  0.960598  0.730404  1
  O  O24  1  0.541258  0.470224  0.763367  1
  O  O25  1  0.793230  0.728772  0.543230  1
  O  O26  1  0.747214  0.281495  0.960531  1
  O  O27  1  0.982157  0.535587  0.732157  1
