# generated using pymatgen
data_Li17Ti20O40
_symmetry_space_group_name_H-M   'P 1'
_cell_length_a   2.94905817
_cell_length_b   25.49598241
_cell_length_c   9.59547450
_cell_angle_alpha   79.77004446
_cell_angle_beta   89.99999596
_cell_angle_gamma   89.99998111
_symmetry_Int_Tables_number   1
_chemical_formula_structural   Li17Ti20O40
_chemical_formula_sum   'Li17 Ti20 O40'
_cell_volume   710.00605517
_cell_formula_units_Z   1
loop_
 _symmetry_equiv_pos_site_id
 _symmetry_equiv_pos_as_xyz
  1  'x, y, z'
loop_
 _atom_site_type_symbol
 _atom_site_label
 _atom_site_symmetry_multiplicity
 _atom_site_fract_x
 _atom_site_fract_y
 _atom_site_fract_z
 _atom_site_occupancy
  Li  Li1  1  0.000001  0.001681  0.999814  1
  Li  Li2  1  -0.000000  0.702705  0.499571  1
  Li  Li3  1  0.500000  0.049517  0.750489  1
  Li  Li4  1  0.500001  0.150248  0.247805  1
  Li  Li5  1  0.500000  0.348793  0.245495  1
  Li  Li6  1  0.500000  0.249142  0.751153  1
  Li  Li7  1  0.500000  0.551007  0.248908  1
  Li  Li8  1  0.500000  0.451144  0.754283  1
  Li  Li9  1  0.499999  0.750472  0.249464  1
  Li  Li10  1  0.500000  0.650039  0.752593  1
  Li  Li11  1  0.500000  0.851023  0.747327  1
  Li  Li12  1  0.500000  0.948706  0.252328  1
  Li  Li13  1  1.000000  0.097479  0.500522  1
  Li  Li14  1  0.000000  0.399903  -0.000045  1
  Li  Li15  1  0.000000  0.300160  0.497951  1
  Li  Li16  1  1.000000  0.499807  0.502046  1
  Li  Li17  1  -0.000001  0.798141  0.000161  1
  Ti  Ti18  1  0.000001  0.049575  0.250349  1
  Ti  Ti19  1  -0.000002  0.850727  0.254066  1
  Ti  Ti20  1  0.500002  0.105763  -0.006425  1
  Ti  Ti21  1  0.500001  0.295150  0.998490  1
  Ti  Ti22  1  0.500000  0.198973  0.499825  1
  Ti  Ti23  1  0.499999  0.504704  0.001789  1
  Ti  Ti24  1  0.500000  0.400063  0.499704  1
  Ti  Ti25  1  0.499999  0.601182  0.499699  1
  Ti  Ti26  1  0.500000  0.694317  0.006600  1
  Ti  Ti27  1  0.499999  0.806266  0.494521  1
  Ti  Ti28  1  0.500000  0.899945  0.000107  1
  Ti  Ti29  1  0.500000  0.993590  0.505673  1
  Ti  Ti30  1  0.000001  0.150123  0.752406  1
  Ti  Ti31  1  0.000000  0.248918  0.243633  1
  Ti  Ti32  1  0.000000  0.448508  0.256330  1
  Ti  Ti33  1  -0.000001  0.650101  0.246504  1
  Ti  Ti34  1  -0.000001  0.351441  0.743821  1
  Ti  Ti35  1  -0.000000  0.551111  0.755951  1
  Ti  Ti36  1  1.000000  0.750406  0.749466  1
  Ti  Ti37  1  -0.000000  0.949124  0.747342  1
  O  O38  1  0.000000  0.374499  0.376007  1
  O  O39  1  0.000000  0.924053  0.121240  1
  O  O40  1  1.000000  0.576503  0.379210  1
  O  O41  1  0.000000  0.425412  0.624075  1
  O  O42  1  0.000002  0.076854  0.878172  1
  O  O43  1  -0.000000  0.624515  0.623711  1
  O  O44  1  -0.000001  0.978271  0.370898  1
  O  O45  1  -0.000001  0.821849  0.629256  1
  O  O46  1  0.499999  0.875556  0.361786  1
  O  O47  1  0.500001  0.070553  0.374769  1
  O  O48  1  0.499999  0.972912  0.875409  1
  O  O49  1  0.499999  0.174654  0.861581  1
  O  O50  1  0.500000  0.271747  0.371785  1
  O  O51  1  0.500000  0.673905  0.375862  1
  O  O52  1  0.500000  0.225546  0.133449  1
  O  O53  1  0.500001  0.372107  0.874460  1
  O  O54  1  0.500000  0.474441  0.373468  1
  O  O55  1  0.500000  0.427991  0.125543  1
  O  O56  1  0.500001  0.574300  0.866669  1
  O  O57  1  0.500000  0.325615  0.626583  1
  O  O58  1  0.499999  0.625187  0.138416  1
  O  O59  1  0.500000  0.771392  0.874526  1
  O  O60  1  0.500000  0.528259  0.628126  1
  O  O61  1  0.499999  0.729281  0.625031  1
  O  O62  1  0.499999  0.827166  0.124840  1
  O  O63  1  0.499999  0.924643  0.638252  1
  O  O64  1  0.500001  0.028684  0.125642  1
  O  O65  1  0.500000  0.126042  0.624082  1
  O  O66  1  0.000001  0.278799  0.868739  1
  O  O67  1  0.000001  0.022410  0.622344  1
  O  O68  1  0.000001  0.175476  0.376343  1
  O  O69  1  -0.000000  0.477868  0.879949  1
  O  O70  1  0.000000  0.223521  0.620627  1
  O  O71  1  -0.000001  0.678907  0.870953  1
  O  O72  1  -0.000001  0.875848  0.878783  1
  O  O73  1  0.000004  0.120992  0.128919  1
  O  O74  1  0.000000  0.322306  0.119991  1
  O  O75  1  -0.000002  0.777337  0.377840  1
  O  O76  1  -0.000000  0.521243  0.131292  1
  O  O77  1  0.000000  0.723401  0.121655  1
