# generated using pymatgen
data_Li4Ti3O8
_symmetry_space_group_name_H-M   'P 1'
_cell_length_a   6.00757989
_cell_length_b   5.92108930
_cell_length_c   5.92108930
_cell_angle_alpha   60.42504142
_cell_angle_beta   59.33815632
_cell_angle_gamma   59.33815632
_symmetry_Int_Tables_number   1
_chemical_formula_structural   Li4Ti3O8
_chemical_formula_sum   'Li4 Ti3 O8'
_cell_volume   147.88247946
_cell_formula_units_Z   1
loop_
 _symmetry_equiv_pos_site_id
 _symmetry_equiv_pos_as_xyz
  1  'x, y, z'
loop_
 _atom_site_type_symbol
 _atom_site_label
 _atom_site_symmetry_multiplicity
 _atom_site_fract_x
 _atom_site_fract_y
 _atom_site_fract_z
 _atom_site_occupancy
  Li  Li1  1  0.125000  0.125000  0.125000  1
  Li  Li2  1  0.125000  0.125000  0.625000  1
  Li  Li3  1  0.125000  0.625000  0.125000  1
  Li  Li4  1  0.625000  0.625000  0.625000  1
  Ti  Ti5  1  0.625000  0.125000  0.625000  1
  Ti  Ti6  1  0.625000  0.625000  0.125000  1
  Ti  Ti7  1  0.125000  0.625000  0.625000  1
  O  O8  1  0.384367  0.382291  0.382291  1
  O  O9  1  0.844617  0.374895  0.374895  1
  O  O10  1  0.368666  0.841421  0.379668  1
  O  O11  1  0.881334  0.870332  0.408579  1
  O  O12  1  0.881334  0.408579  0.870332  1
  O  O13  1  0.368666  0.379668  0.841421  1
  O  O14  1  0.405383  0.875105  0.875105  1
  O  O15  1  0.865633  0.867709  0.867709  1
