# generated using pymatgen
data_LiTi2O4
_symmetry_space_group_name_H-M   'P 1'
_cell_length_a   7.88679128
_cell_length_b   7.89166779
_cell_length_c   10.65016397
_cell_angle_alpha   83.58763773
_cell_angle_beta   99.16267055
_cell_angle_gamma   120.19256974
_symmetry_Int_Tables_number   1
_chemical_formula_structural   LiTi2O4
_chemical_formula_sum   'Li7 Ti14 O28'
_cell_volume   565.24259547
_cell_formula_units_Z   7
loop_
 _symmetry_equiv_pos_site_id
 _symmetry_equiv_pos_as_xyz
  1  'x, y, z'
loop_
 _atom_site_type_symbol
 _atom_site_label
 _atom_site_symmetry_multiplicity
 _atom_site_fract_x
 _atom_site_fract_y
 _atom_site_fract_z
 _atom_site_occupancy
  Li  Li1  1  0.139825  0.957437  0.781304  1
  Li  Li2  1  0.292364  0.680121  0.777599  1
  Li  Li3  1  0.446254  0.393131  0.781203  1
  Li  Li4  1  0.799533  0.254220  0.737429  1
  Li  Li5  1  0.998067  0.748068  0.221152  1
  Li  Li6  1  0.370372  0.410301  0.263916  1
  Li  Li7  1  0.845936  0.040193  0.221001  1
  Ti  Ti8  1  0.853265  0.772743  0.504114  1
  Ti  Ti9  1  0.294257  0.944679  0.496306  1
  Ti  Ti10  1  0.428438  0.648321  0.496883  1
  Ti  Ti11  1  0.573510  0.355947  0.503163  1
  Ti  Ti12  1  0.713573  0.069876  0.495747  1
  Ti  Ti13  1  0.003004  0.498938  0.495417  1
  Ti  Ti14  1  0.134519  0.213037  0.504482  1
  Ti  Ti15  1  0.573429  0.853217  0.995342  1
  Ti  Ti16  1  0.714491  0.582240  0.996358  1
  Ti  Ti17  1  0.860007  0.299913  0.006648  1
  Ti  Ti18  1  0.147966  0.711237  0.007783  1
  Ti  Ti19  1  0.271714  0.414443  0.994984  1
  Ti  Ti20  1  0.436645  0.138300  0.017469  1
  Ti  Ti21  1  0.999239  0.009483  0.991540  1
  O  O22  1  0.939420  0.770845  0.899299  1
  O  O23  1  0.355150  0.906724  0.898733  1
  O  O24  1  0.493651  0.618107  0.888615  1
  O  O25  1  0.642379  0.337447  0.903130  1
  O  O26  1  0.793471  0.066364  0.899220  1
  O  O27  1  0.075306  0.483972  0.894481  1
  O  O28  1  0.230730  0.191367  0.892719  1
  O  O29  1  0.684465  0.827491  0.592972  1
  O  O30  1  0.831927  0.538080  0.601688  1
  O  O31  1  0.964531  0.257170  0.603678  1
  O  O32  1  0.114416  0.968060  0.601034  1
  O  O33  1  0.255701  0.683612  0.597550  1
  O  O34  1  0.399968  0.400000  0.601598  1
  O  O35  1  0.549038  0.116270  0.604289  1
  O  O36  1  0.454632  0.882900  0.402829  1
  O  O37  1  0.594322  0.594197  0.399854  1
  O  O38  1  0.744248  0.314150  0.403625  1
  O  O39  1  0.889059  0.028136  0.400493  1
  O  O40  1  0.028581  0.746085  0.400565  1
  O  O41  1  0.179917  0.455335  0.400494  1
  O  O42  1  0.314778  0.178956  0.399375  1
  O  O43  1  0.789792  0.812551  0.103398  1
  O  O44  1  0.920848  0.528963  0.104493  1
  O  O45  1  0.201089  0.942868  0.101775  1
  O  O46  1  0.351677  0.653137  0.094959  1
  O  O47  1  0.487203  0.375844  0.098771  1
  O  O48  1  0.643069  0.083095  0.103645  1
  O  O49  1  0.062088  0.229779  0.105997  1
