# generated using pymatgen
data_LiTi4O8
_symmetry_space_group_name_H-M   'P 1'
_cell_length_a   7.25030948
_cell_length_b   10.18749336
_cell_length_c   5.80080151
_cell_angle_alpha   88.52677527
_cell_angle_beta   85.84285876
_cell_angle_gamma   78.71159803
_symmetry_Int_Tables_number   1
_chemical_formula_structural   LiTi4O8
_chemical_formula_sum   'Li3 Ti12 O24'
_cell_volume   419.03814731
_cell_formula_units_Z   3
loop_
 _symmetry_equiv_pos_site_id
 _symmetry_equiv_pos_as_xyz
  1  'x, y, z'
loop_
 _atom_site_type_symbol
 _atom_site_label
 _atom_site_symmetry_multiplicity
 _atom_site_fract_x
 _atom_site_fract_y
 _atom_site_fract_z
 _atom_site_occupancy
  Li  Li1  1  0.427188  0.930853  0.993560  1
  Li  Li2  1  0.572747  0.315610  0.251251  1
  Li  Li3  1  0.572338  0.573189  0.509203  1
  Ti  Ti4  1  0.002679  0.751473  0.749373  1
  Ti  Ti5  1  0.989357  0.003521  0.001266  1
  Ti  Ti6  1  0.011117  0.246572  0.253719  1
  Ti  Ti7  1  0.006245  0.496408  0.496912  1
  Ti  Ti8  1  0.311002  0.208049  0.732510  1
  Ti  Ti9  1  0.306355  0.459923  0.972255  1
  Ti  Ti10  1  0.305080  0.704164  0.225233  1
  Ti  Ti11  1  0.309401  0.951431  0.481502  1
  Ti  Ti12  1  0.688895  0.041247  0.517792  1
  Ti  Ti13  1  0.696005  0.291293  0.773656  1
  Ti  Ti14  1  0.690683  0.552284  0.012310  1
  Ti  Ti15  1  0.695987  0.794292  0.278364  1
  O  O16  1  0.138421  0.150696  0.974019  1
  O  O17  1  0.133670  0.653769  0.472092  1
  O  O18  1  0.136338  0.403914  0.221077  1
  O  O19  1  0.137077  0.902555  0.727226  1
  O  O20  1  0.190248  0.397271  0.710201  1
  O  O21  1  0.188221  0.648021  0.960193  1
  O  O22  1  0.190774  0.146536  0.466258  1
  O  O23  1  0.200613  0.899656  0.202148  1
  O  O24  1  0.457396  0.018126  0.714065  1
  O  O25  1  0.458840  0.270536  0.970514  1
  O  O26  1  0.459107  0.763540  0.467818  1
  O  O27  1  0.461060  0.515504  0.225265  1
  O  O28  1  0.543372  0.232111  0.536268  1
  O  O29  1  0.542701  0.483544  0.785051  1
  O  O30  1  0.540925  0.734872  0.031218  1
  O  O31  1  0.541466  0.978738  0.278283  1
  O  O32  1  0.809794  0.101886  0.785210  1
  O  O33  1  0.799098  0.352004  0.046051  1
  O  O34  1  0.799697  0.599814  0.296617  1
  O  O35  1  0.811099  0.853301  0.540096  1
  O  O36  1  0.864397  0.596548  0.772604  1
  O  O37  1  0.859250  0.349746  0.523915  1
  O  O38  1  0.860981  0.099722  0.276357  1
  O  O39  1  0.865981  0.845403  0.026371  1
