# generated using pymatgen
data_Li4Ti11O24
_symmetry_space_group_name_H-M   'P 1'
_cell_length_a   5.98948752
_cell_length_b   10.25939671
_cell_length_c   8.50023519
_cell_angle_alpha   65.94980300
_cell_angle_beta   90.09685584
_cell_angle_gamma   73.11610404
_symmetry_Int_Tables_number   1
_chemical_formula_structural   Li4Ti11O24
_chemical_formula_sum   'Li4 Ti11 O24'
_cell_volume   452.09478072
_cell_formula_units_Z   1
loop_
 _symmetry_equiv_pos_site_id
 _symmetry_equiv_pos_as_xyz
  1  'x, y, z'
loop_
 _atom_site_type_symbol
 _atom_site_label
 _atom_site_symmetry_multiplicity
 _atom_site_fract_x
 _atom_site_fract_y
 _atom_site_fract_z
 _atom_site_occupancy
  Li  Li1  1  0.500788  0.001524  0.258072  1
  Li  Li2  1  0.332719  0.333729  0.322040  1
  Li  Li3  1  0.006135  0.991480  0.000980  1
  Li  Li4  1  0.828922  0.340555  0.582987  1
  Ti  Ti5  1  0.094321  0.325231  0.951166  1
  Ti  Ti6  1  0.257785  0.009639  0.630580  1
  Ti  Ti7  1  0.087222  0.828452  0.475797  1
  Ti  Ti8  1  0.253091  0.486660  0.632777  1
  Ti  Ti9  1  0.579382  0.323231  0.949230  1
  Ti  Ti10  1  0.739536  0.007935  0.635786  1
  Ti  Ti11  1  0.416783  0.665010  0.293941  1
  Ti  Ti12  1  0.744785  0.507694  0.104721  1
  Ti  Ti13  1  0.572276  0.847946  0.952915  1
  Ti  Ti14  1  0.913544  0.167523  0.292212  1
  Ti  Ti15  1  0.915621  0.668249  0.290322  1
  O  O16  1  0.218345  0.002117  0.385371  1
  O  O17  1  0.051045  0.333527  0.194850  1
  O  O18  1  0.081601  0.351362  0.718310  1
  O  O19  1  0.094663  0.813650  0.225871  1
  O  O20  1  0.071274  0.858000  0.676451  1
  O  O21  1  0.401703  0.190867  0.041689  1
  O  O22  1  0.259965  0.477240  0.866717  1
  O  O23  1  0.243360  0.515170  0.377233  1
  O  O24  1  0.430679  0.143325  0.540011  1
  O  O25  1  0.382267  0.670050  0.519061  1
  O  O26  1  0.562032  0.350021  0.718448  1
  O  O27  1  0.267683  0.984046  0.862917  1
  O  O28  1  0.781668  0.001914  0.384152  1
  O  O29  1  0.614979  0.331949  0.197163  1
  O  O30  1  0.450140  0.665780  0.063179  1
  O  O31  1  0.923386  0.155432  0.534191  1
  O  O32  1  0.591858  0.820286  0.203987  1
  O  O33  1  0.908257  0.179311  0.046218  1
  O  O34  1  0.758217  0.476917  0.905188  1
  O  O35  1  0.739921  0.521086  0.357260  1
  O  O36  1  0.572014  0.857345  0.715549  1
  O  O37  1  0.883324  0.664664  0.063407  1
  O  O38  1  0.747306  0.984786  0.864287  1
  O  O39  1  0.948934  0.670042  0.518601  1
