# generated using pymatgen
data_Li7Ti16O32
_symmetry_space_group_name_H-M   'P 1'
_cell_length_a   5.08587626
_cell_length_b   11.41018749
_cell_length_c   11.41018749
_cell_angle_alpha   117.46335295
_cell_angle_beta   90.07007658
_cell_angle_gamma   89.92992342
_symmetry_Int_Tables_number   1
_chemical_formula_structural   Li7Ti16O32
_chemical_formula_sum   'Li7 Ti16 O32'
_cell_volume   587.52225299
_cell_formula_units_Z   1
loop_
 _symmetry_equiv_pos_site_id
 _symmetry_equiv_pos_as_xyz
  1  'x, y, z'
loop_
 _atom_site_type_symbol
 _atom_site_label
 _atom_site_symmetry_multiplicity
 _atom_site_fract_x
 _atom_site_fract_y
 _atom_site_fract_z
 _atom_site_occupancy
  Li  Li1  1  0.570928  0.327861  0.297139  1
  Li  Li2  1  0.437506  0.926507  0.961533  1
  Li  Li3  1  0.437506  0.663467  0.698493  1
  Li  Li4  1  0.063787  0.173508  0.703296  1
  Li  Li5  1  0.063093  0.670453  0.204058  1
  Li  Li6  1  0.063787  0.921704  0.451492  1
  Li  Li7  1  0.063093  0.420942  0.954547  1
  Ti  Ti8  1  0.978897  0.740223  0.884777  1
  Ti  Ti9  1  0.973404  0.486144  0.625436  1
  Ti  Ti10  1  0.999177  0.240286  0.384714  1
  Ti  Ti11  1  0.973404  0.999564  0.138856  1
  Ti  Ti12  1  0.521507  0.240187  0.883230  1
  Ti  Ti13  1  0.521507  0.741770  0.384813  1
  Ti  Ti14  1  0.530233  0.490371  0.134629  1
  Ti  Ti15  1  0.515123  0.992583  0.632417  1
  Ti  Ti16  1  0.480923  0.507185  0.867119  1
  Ti  Ti17  1  0.491884  0.258427  0.615755  1
  Ti  Ti18  1  0.491884  0.009245  0.366573  1
  Ti  Ti19  1  0.480923  0.757881  0.117815  1
  Ti  Ti20  1  0.010013  0.003395  0.863907  1
  Ti  Ti21  1  0.030060  0.510808  0.375296  1
  Ti  Ti22  1  0.030060  0.249704  0.114192  1
  Ti  Ti23  1  0.010013  0.761093  0.621605  1
  O  O24  1  0.805370  0.670934  0.708480  1
  O  O25  1  0.803469  0.172071  0.207982  1
  O  O26  1  0.803469  0.417018  0.452929  1
  O  O27  1  0.805370  0.916520  0.954066  1
  O  O28  1  0.804398  0.175584  0.953218  1
  O  O29  1  0.793108  0.924539  0.700461  1
  O  O30  1  0.789634  0.418193  0.206807  1
  O  O31  1  0.804398  0.671782  0.449416  1
  O  O32  1  0.698413  0.427493  0.704095  1
  O  O33  1  0.701898  0.174636  0.450364  1
  O  O34  1  0.700515  0.673080  0.951920  1
  O  O35  1  0.698413  0.920905  0.197507  1
  O  O36  1  0.695518  0.420338  0.956577  1
  O  O37  1  0.696142  0.171899  0.705733  1
  O  O38  1  0.696142  0.919267  0.453101  1
  O  O39  1  0.695518  0.668423  0.204662  1
  O  O40  1  0.291481  0.828663  0.293807  1
  O  O41  1  0.291481  0.331193  0.796337  1
  O  O42  1  0.292411  0.080334  0.544666  1
  O  O43  1  0.288357  0.580974  0.044026  1
  O  O44  1  0.282391  0.082038  0.794567  1
  O  O45  1  0.282391  0.830433  0.542962  1
  O  O46  1  0.287094  0.579251  0.291935  1
  O  O47  1  0.287094  0.333065  0.045749  1
  O  O48  1  0.199458  0.328382  0.552990  1
  O  O49  1  0.209983  0.831548  0.043525  1
  O  O50  1  0.199458  0.072010  0.296618  1
  O  O51  1  0.209983  0.581475  0.793452  1
  O  O52  1  0.214539  0.830597  0.794403  1
  O  O53  1  0.202785  0.332017  0.292983  1
  O  O54  1  0.201252  0.079066  0.041537  1
  O  O55  1  0.201252  0.583463  0.545934  1
