# generated using pymatgen
data_K3As7
_symmetry_space_group_name_H-M   'P 1'
_cell_length_a   13.11793264
_cell_length_b   15.65126367
_cell_length_c   25.90901087
_cell_angle_alpha   90.00000000
_cell_angle_beta   90.00000000
_cell_angle_gamma   90.00000000
_symmetry_Int_Tables_number   1
_chemical_formula_structural   K3As7
_chemical_formula_sum   'K48 As112'
_cell_volume   5319.43660589
_cell_formula_units_Z   16
loop_
 _symmetry_equiv_pos_site_id
 _symmetry_equiv_pos_as_xyz
  1  'x, y, z'
loop_
 _atom_site_type_symbol
 _atom_site_label
 _atom_site_symmetry_multiplicity
 _atom_site_fract_x
 _atom_site_fract_y
 _atom_site_fract_z
 _atom_site_occupancy
  K  K1  1  0.542419  0.539500  0.820693  1
  K  K2  1  0.954321  0.642754  0.559457  1
  K  K3  1  0.384360  0.913917  0.923001  1
  K  K4  1  0.130158  0.394864  0.870801  1
  K  K5  1  0.884360  0.586083  0.923001  1
  K  K6  1  0.130158  0.894864  0.629199  1
  K  K7  1  0.615640  0.586083  0.423001  1
  K  K8  1  0.279201  0.665970  0.720413  1
  K  K9  1  0.957581  0.039500  0.179307  1
  K  K10  1  0.132715  0.753993  0.919635  1
  K  K11  1  0.045679  0.857246  0.059457  1
  K  K12  1  0.132715  0.253993  0.580365  1
  K  K13  1  0.867285  0.246007  0.080365  1
  K  K14  1  0.615640  0.086083  0.076999  1
  K  K15  1  0.957581  0.539500  0.320693  1
  K  K16  1  0.454321  0.857246  0.559457  1
  K  K17  1  0.367285  0.753993  0.419635  1
  K  K18  1  0.867285  0.746007  0.419635  1
  K  K19  1  0.369842  0.394864  0.370801  1
  K  K20  1  0.369842  0.894864  0.129199  1
  K  K21  1  0.457581  0.460500  0.179307  1
  K  K22  1  0.779201  0.834030  0.720413  1
  K  K23  1  0.042419  0.460500  0.679307  1
  K  K24  1  0.884360  0.086083  0.576999  1
  K  K25  1  0.720799  0.834030  0.220413  1
  K  K26  1  0.042419  0.960500  0.820693  1
  K  K27  1  0.545679  0.642754  0.059457  1
  K  K28  1  0.220799  0.665970  0.220413  1
  K  K29  1  0.869842  0.605136  0.129199  1
  K  K30  1  0.954321  0.142754  0.940543  1
  K  K31  1  0.630158  0.105136  0.870801  1
  K  K32  1  0.457581  0.960500  0.320693  1
  K  K33  1  0.367285  0.253993  0.080365  1
  K  K34  1  0.542419  0.039500  0.679307  1
  K  K35  1  0.045679  0.357246  0.440543  1
  K  K36  1  0.632715  0.746007  0.919635  1
  K  K37  1  0.115640  0.913917  0.423001  1
  K  K38  1  0.454321  0.357246  0.940543  1
  K  K39  1  0.630158  0.605136  0.629199  1
  K  K40  1  0.869842  0.105136  0.370801  1
  K  K41  1  0.115640  0.413917  0.076999  1
  K  K42  1  0.384360  0.413917  0.576999  1
  K  K43  1  0.279201  0.165970  0.779587  1
  K  K44  1  0.720799  0.334030  0.279587  1
  K  K45  1  0.545679  0.142754  0.440543  1
  K  K46  1  0.779201  0.334030  0.779587  1
  K  K47  1  0.220799  0.165970  0.279587  1
  K  K48  1  0.632715  0.246007  0.580365  1
  As  As49  1  0.622101  0.860445  0.047832  1
  As  As50  1  0.124173  0.868230  0.184763  1
  As  As51  1  0.875827  0.631770  0.684763  1
  As  As52  1  0.201659  0.934956  0.260910  1
  As  As53  1  0.214147  0.231567  0.955426  1
  As  As54  1  0.122101  0.139555  0.452168  1
  As  As55  1  0.063673  0.615545  0.801558  1
  As  As56  1  0.798341  0.065044  0.739090  1
  As  As57  1  0.316182  0.545121  0.960076  1
  As  As58  1  0.946603  0.245212  0.684979  1
  As  As59  1  0.369174  0.694757  0.966124  1
  As  As60  1  0.622101  0.360445  0.452168  1
  As  As61  1  0.563673  0.384455  0.698442  1
  As  As62  1  0.201659  0.434956  0.239090  1
  As  As63  1  0.721751  0.189633  0.183444  1
  As  As64  1  0.550614  0.998201  0.199865  1
  As  As65  1  0.816182  0.454879  0.539924  1
  As  As66  1  0.214147  0.731567  0.544574  1
  As  As67  1  0.436327  0.615545  0.301558  1
  As  As68  1  0.285853  0.731567  0.044574  1
  As  As69  1  0.011339  0.709460  0.724027  1
  As  As70  1  0.778249  0.189633  0.683443  1
  As  As71  1  0.719360  0.405363  0.901504  1
  As  As72  1  0.137445  0.990044  0.953128  1
  As  As73  1  0.053397  0.254788  0.184979  1
  As  As74  1  0.278249  0.310367  0.683443  1
  As  As75  1  0.869174  0.805243  0.966124  1
  As  As76  1  0.053397  0.754788  0.315021  1
  As  As77  1  0.130826  0.694757  0.466124  1
  As  As78  1  0.683818  0.454879  0.039924  1
  As  As79  1  0.701659  0.065044  0.239090  1
  As  As80  1  0.877899  0.860445  0.547832  1
  As  As81  1  0.719360  0.905363  0.598496  1
  As  As82  1  0.488661  0.709460  0.224027  1
  As  As83  1  0.219360  0.094637  0.901504  1
  As  As84  1  0.368398  0.554252  0.471871  1
  As  As85  1  0.131602  0.054252  0.528129  1
  As  As86  1  0.988661  0.290540  0.275973  1
  As  As87  1  0.280640  0.094637  0.401504  1
  As  As88  1  0.637445  0.509956  0.953128  1
  As  As89  1  0.449386  0.501799  0.699865  1
  As  As90  1  0.063673  0.115545  0.698442  1
  As  As91  1  0.446603  0.754788  0.815021  1
  As  As92  1  0.488661  0.209460  0.275973  1
  As  As93  1  0.798341  0.565044  0.760910  1
  As  As94  1  0.436327  0.115545  0.198442  1
  As  As95  1  0.375827  0.368230  0.815237  1
  As  As96  1  0.362555  0.990044  0.453128  1
  As  As97  1  0.298341  0.434956  0.739090  1
  As  As98  1  0.131602  0.554252  0.971871  1
  As  As99  1  0.280640  0.594637  0.098496  1
  As  As100  1  0.553397  0.245212  0.184979  1
  As  As101  1  0.446603  0.254788  0.684979  1
  As  As102  1  0.511339  0.290540  0.775973  1
  As  As103  1  0.377899  0.139555  0.952168  1
  As  As104  1  0.877899  0.360445  0.952168  1
  As  As105  1  0.221751  0.810367  0.316557  1
  As  As106  1  0.511339  0.790540  0.724027  1
  As  As107  1  0.637445  0.009956  0.546872  1
  As  As108  1  0.375827  0.868230  0.684763  1
  As  As109  1  0.630826  0.805243  0.466124  1
  As  As110  1  0.875827  0.131770  0.815237  1
  As  As111  1  0.631602  0.945748  0.971871  1
  As  As112  1  0.050614  0.001799  0.300135  1
  As  As113  1  0.369174  0.194757  0.533876  1
  As  As114  1  0.285853  0.231567  0.455426  1
  As  As115  1  0.278249  0.810367  0.816557  1
  As  As116  1  0.130826  0.194757  0.033876  1
  As  As117  1  0.868398  0.945748  0.471871  1
  As  As118  1  0.868398  0.445748  0.028129  1
  As  As119  1  0.183818  0.045121  0.039924  1
  As  As120  1  0.701659  0.565044  0.260910  1
  As  As121  1  0.946603  0.745212  0.815021  1
  As  As122  1  0.553397  0.745212  0.315021  1
  As  As123  1  0.780640  0.405363  0.401504  1
  As  As124  1  0.714147  0.768433  0.544574  1
  As  As125  1  0.124173  0.368230  0.315237  1
  As  As126  1  0.316182  0.045121  0.539924  1
  As  As127  1  0.785853  0.268433  0.455426  1
  As  As128  1  0.122101  0.639555  0.047832  1
  As  As129  1  0.137445  0.490044  0.546872  1
  As  As130  1  0.936327  0.384455  0.198442  1
  As  As131  1  0.624173  0.631770  0.184763  1
  As  As132  1  0.219360  0.594637  0.598496  1
  As  As133  1  0.816182  0.954879  0.960076  1
  As  As134  1  0.011339  0.209460  0.775973  1
  As  As135  1  0.869174  0.305243  0.533876  1
  As  As136  1  0.949386  0.998201  0.699865  1
  As  As137  1  0.936327  0.884455  0.301558  1
  As  As138  1  0.221751  0.310367  0.183444  1
  As  As139  1  0.624173  0.131770  0.315237  1
  As  As140  1  0.862555  0.509956  0.453128  1
  As  As141  1  0.714147  0.268433  0.955426  1
  As  As142  1  0.683818  0.954879  0.460076  1
  As  As143  1  0.298341  0.934956  0.760910  1
  As  As144  1  0.362555  0.490044  0.046872  1
  As  As145  1  0.988661  0.790540  0.224027  1
  As  As146  1  0.183818  0.545121  0.460076  1
  As  As147  1  0.630826  0.305243  0.033876  1
  As  As148  1  0.563673  0.884455  0.801558  1
  As  As149  1  0.050614  0.501799  0.199865  1
  As  As150  1  0.780640  0.905363  0.098496  1
  As  As151  1  0.631602  0.445748  0.528129  1
  As  As152  1  0.550614  0.498201  0.300135  1
  As  As153  1  0.862555  0.009956  0.046872  1
  As  As154  1  0.949386  0.498201  0.800135  1
  As  As155  1  0.377899  0.639555  0.547832  1
  As  As156  1  0.721751  0.689633  0.316557  1
  As  As157  1  0.785853  0.768433  0.044574  1
  As  As158  1  0.778249  0.689633  0.816557  1
  As  As159  1  0.449386  0.001799  0.800135  1
  As  As160  1  0.368398  0.054252  0.028129  1
