# generated using pymatgen
data_Li7Ti11O24
_symmetry_space_group_name_H-M   'P 1'
_cell_length_a   5.97954493
_cell_length_b   10.34434581
_cell_length_c   8.46652596
_cell_angle_alpha   114.15422147
_cell_angle_beta   89.97273331
_cell_angle_gamma   73.19650380
_symmetry_Int_Tables_number   1
_chemical_formula_structural   Li7Ti11O24
_chemical_formula_sum   'Li7 Ti11 O24'
_cell_volume   453.19054553
_cell_formula_units_Z   1
loop_
 _symmetry_equiv_pos_site_id
 _symmetry_equiv_pos_as_xyz
  1  'x, y, z'
loop_
 _atom_site_type_symbol
 _atom_site_label
 _atom_site_symmetry_multiplicity
 _atom_site_fract_x
 _atom_site_fract_y
 _atom_site_fract_z
 _atom_site_occupancy
  Li  Li1  1  0.999129  0.000864  0.997928  1
  Li  Li2  1  0.670068  0.664428  0.331590  1
  Li  Li3  1  0.168250  0.670112  0.584290  1
  Li  Li4  1  0.497294  0.002086  0.254409  1
  Li  Li5  1  0.330731  0.331515  0.664502  1
  Li  Li6  1  0.833009  0.334557  0.922727  1
  Li  Li7  1  0.421211  0.165870  0.960692  1
  Ti  Ti8  1  0.256290  0.492005  0.118824  1
  Ti  Ti9  1  0.082279  0.833036  0.292525  1
  Ti  Ti10  1  0.088194  0.328689  0.281811  1
  Ti  Ti11  1  0.577936  0.329486  0.285896  1
  Ti  Ti12  1  0.751372  0.498231  0.623961  1
  Ti  Ti13  1  0.917280  0.165631  0.457761  1
  Ti  Ti14  1  0.581696  0.841237  0.797874  1
  Ti  Ti15  1  0.252248  0.004320  0.636050  1
  Ti  Ti16  1  0.916800  0.666171  0.957980  1
  Ti  Ti17  1  0.741567  0.005245  0.634357  1
  Ti  Ti18  1  0.415426  0.667129  0.957281  1
  O  O19  1  0.591073  0.817923  0.021532  1
  O  O20  1  0.090988  0.816054  0.044633  1
  O  O21  1  0.943671  0.667185  0.195048  1
  O  O22  1  0.388254  0.667638  0.195629  1
  O  O23  1  0.095551  0.344605  0.065479  1
  O  O24  1  0.560788  0.344046  0.066612  1
  O  O25  1  0.256743  0.483478  0.355716  1
  O  O26  1  0.402859  0.190127  0.221706  1
  O  O27  1  0.073332  0.851338  0.535086  1
  O  O28  1  0.906603  0.182714  0.228272  1
  O  O29  1  0.757645  0.481758  0.382344  1
  O  O30  1  0.574433  0.850221  0.562352  1
  O  O31  1  0.610192  0.332501  0.529681  1
  O  O32  1  0.055632  0.332326  0.528213  1
  O  O33  1  0.445209  0.665963  0.721011  1
  O  O34  1  0.221096  0.999762  0.387499  1
  O  O35  1  0.890297  0.665705  0.720827  1
  O  O36  1  0.776706  0.999527  0.387857  1
  O  O37  1  0.924780  0.150779  0.689814  1
  O  O38  1  0.741515  0.517025  0.871651  1
  O  O39  1  0.427586  0.142851  0.694514  1
  O  O40  1  0.242275  0.514863  0.895588  1
  O  O41  1  0.272890  0.990050  0.852498  1
  O  O42  1  0.737739  0.990416  0.852264  1
