# generated using pymatgen
data_LiTi4O8
_symmetry_space_group_name_H-M   'P 1'
_cell_length_a   5.93639644
_cell_length_b   5.92131786
_cell_length_c   5.98217821
_cell_angle_alpha   90.26775473
_cell_angle_beta   59.90659986
_cell_angle_gamma   60.86615590
_symmetry_Int_Tables_number   1
_chemical_formula_structural   LiTi4O8
_chemical_formula_sum   'Li1 Ti4 O8'
_cell_volume   150.06177047
_cell_formula_units_Z   1
loop_
 _symmetry_equiv_pos_site_id
 _symmetry_equiv_pos_as_xyz
  1  'x, y, z'
loop_
 _atom_site_type_symbol
 _atom_site_label
 _atom_site_symmetry_multiplicity
 _atom_site_fract_x
 _atom_site_fract_y
 _atom_site_fract_z
 _atom_site_occupancy
  Li  Li1  1  0.000000  0.500000  0.500000  1
  Ti  Ti2  1  0.500000  0.000000  0.500000  1
  Ti  Ti3  1  0.500000  0.000000  0.000000  1
  Ti  Ti4  1  0.000000  0.500000  0.000000  1
  Ti  Ti5  1  0.000000  0.000000  0.000000  1
  O  O6  1  0.969532  0.760943  0.789483  1
  O  O7  1  0.969297  0.763450  0.240811  1
  O  O8  1  0.475462  0.789850  0.761194  1
  O  O9  1  0.532137  0.763062  0.232861  1
  O  O10  1  0.467863  0.236938  0.767139  1
  O  O11  1  0.524538  0.210150  0.238806  1
  O  O12  1  0.030703  0.236550  0.759189  1
  O  O13  1  0.030468  0.239057  0.210517  1
