# generated using pymatgen
data_Li2TiO3
_symmetry_space_group_name_H-M   'P 1'
_cell_length_a   5.08712433
_cell_length_b   5.03823166
_cell_length_c   7.62320871
_cell_angle_alpha   90.44468493
_cell_angle_beta   70.79906044
_cell_angle_gamma   118.11150122
_symmetry_Int_Tables_number   1
_chemical_formula_structural   Li2TiO3
_chemical_formula_sum   'Li6 Ti3 O9'
_cell_volume   160.18634810
_cell_formula_units_Z   3
loop_
 _symmetry_equiv_pos_site_id
 _symmetry_equiv_pos_as_xyz
  1  'x, y, z'
loop_
 _atom_site_type_symbol
 _atom_site_label
 _atom_site_symmetry_multiplicity
 _atom_site_fract_x
 _atom_site_fract_y
 _atom_site_fract_z
 _atom_site_occupancy
  Li  Li1  1  0.121122  0.224121  0.335899  1
  Li  Li2  1  0.339344  0.663470  0.001273  1
  Li  Li3  1  0.216212  0.447641  0.665394  1
  Li  Li4  1  0.434434  0.886990  0.330768  1
  Li  Li5  1  0.665164  0.338287  0.998890  1
  Li  Li6  1  0.890391  0.772824  0.667777  1
  Ti  Ti7  1  0.557726  0.093593  0.666719  1
  Ti  Ti8  1  0.777778  0.555556  0.333333  1
  Ti  Ti9  1  0.997830  0.017518  0.999948  1
  O  O10  1  0.380145  0.190797  0.492848  1
  O  O11  1  0.175411  0.920314  0.173819  1
  O  O12  1  0.894443  0.284895  0.160483  1
  O  O13  1  0.593760  0.634682  0.163737  1
  O  O14  1  0.417962  0.345907  0.841518  1
  O  O15  1  0.777778  0.055556  0.833333  1
  O  O16  1  0.137593  0.765204  0.825149  1
  O  O17  1  0.961795  0.476429  0.502929  1
  O  O18  1  0.661113  0.826217  0.506184  1
