# generated using pymatgen
data_LiTi6O12
_symmetry_space_group_name_H-M   'P 1'
_cell_length_a   7.80208895
_cell_length_b   9.60697719
_cell_length_c   5.86189679
_cell_angle_alpha   90.00000000
_cell_angle_beta   80.31734336
_cell_angle_gamma   90.00000000
_symmetry_Int_Tables_number   1
_chemical_formula_structural   LiTi6O12
_chemical_formula_sum   'Li2 Ti12 O24'
_cell_volume   433.11633143
_cell_formula_units_Z   2
loop_
 _symmetry_equiv_pos_site_id
 _symmetry_equiv_pos_as_xyz
  1  'x, y, z'
loop_
 _atom_site_type_symbol
 _atom_site_label
 _atom_site_symmetry_multiplicity
 _atom_site_fract_x
 _atom_site_fract_y
 _atom_site_fract_z
 _atom_site_occupancy
  Li  Li1  1  0.437379  0.963547  0.125392  1
  Li  Li2  1  0.895954  0.463547  0.041275  1
  Ti  Ti3  1  0.242221  0.354455  0.225799  1
  Ti  Ti4  1  0.100331  0.637521  0.447327  1
  Ti  Ti5  1  0.430319  0.633064  0.112116  1
  Ti  Ti6  1  0.580128  0.145290  0.408964  1
  Ti  Ti7  1  0.903015  0.133064  0.054551  1
  Ti  Ti8  1  0.233002  0.137521  0.719340  1
  Ti  Ti9  1  0.766053  0.863196  0.275954  1
  Ti  Ti10  1  0.091112  0.854455  0.940868  1
  Ti  Ti11  1  0.428699  0.863163  0.605242  1
  Ti  Ti12  1  0.567280  0.363196  0.890714  1
  Ti  Ti13  1  0.904635  0.363163  0.561425  1
  Ti  Ti14  1  0.753205  0.645290  0.757703  1
  O  O15  1  0.138852  0.228169  0.028785  1
  O  O16  1  0.017984  0.465556  0.288220  1
  O  O17  1  0.194481  0.728169  0.137881  1
  O  O18  1  0.141333  0.273977  0.531577  1
  O  O19  1  0.474743  0.271078  0.199679  1
  O  O20  1  0.654203  0.535567  0.045157  1
  O  O21  1  0.315723  0.534251  0.381507  1
  O  O22  1  0.679131  0.035567  0.121509  1
  O  O23  1  0.354336  0.035234  0.445690  1
  O  O24  1  0.017610  0.034251  0.785160  1
  O  O25  1  0.192001  0.773977  0.635090  1
  O  O26  1  0.520153  0.783489  0.289788  1
  O  O27  1  0.811125  0.228305  0.364354  1
  O  O28  1  0.473593  0.224563  0.704879  1
  O  O29  1  0.649867  0.964926  0.549433  1
  O  O30  1  0.980952  0.964149  0.211461  1
  O  O31  1  0.315349  0.965556  0.878447  1
  O  O32  1  0.683467  0.464926  0.617234  1
  O  O33  1  0.352381  0.464149  0.955205  1
  O  O34  1  0.522209  0.728305  0.802312  1
  O  O35  1  0.859740  0.724563  0.461788  1
  O  O36  1  0.813180  0.283489  0.876879  1
  O  O37  1  0.978997  0.535234  0.720977  1
  O  O38  1  0.858591  0.771078  0.966988  1
