# generated using pymatgen
data_Li4Ti15O32
_symmetry_space_group_name_H-M   'P 1'
_cell_length_a   5.97087937
_cell_length_b   5.97087937
_cell_length_c   19.76762496
_cell_angle_alpha   98.68643153
_cell_angle_beta   90.00000000
_cell_angle_gamma   120.00000000
_symmetry_Int_Tables_number   1
_chemical_formula_structural   Li4Ti15O32
_chemical_formula_sum   'Li4 Ti15 O32'
_cell_volume   600.97348704
_cell_formula_units_Z   1
loop_
 _symmetry_equiv_pos_site_id
 _symmetry_equiv_pos_as_xyz
  1  'x, y, z'
loop_
 _atom_site_type_symbol
 _atom_site_label
 _atom_site_symmetry_multiplicity
 _atom_site_fract_x
 _atom_site_fract_y
 _atom_site_fract_z
 _atom_site_occupancy
  Li  Li1  1  0.187667  0.375334  0.563000  1
  Li  Li2  1  0.843274  0.686548  0.529822  1
  Li  Li3  1  0.249936  0.499873  0.749810  1
  Li  Li4  1  0.498758  0.997516  0.496275  1
  Ti  Ti5  1  0.217180  0.941006  0.158186  1
  Ti  Ti6  1  0.345351  0.690703  0.036054  1
  Ti  Ti7  1  0.723826  0.941006  0.158186  1
  Ti  Ti8  1  0.217180  0.434361  0.158186  1
  Ti  Ti9  1  0.095721  0.191440  0.287161  1
  Ti  Ti10  1  0.210311  0.931960  0.653611  1
  Ti  Ti11  1  0.477946  0.443380  0.408814  1
  Ti  Ti12  1  0.965434  0.930868  0.408814  1
  Ti  Ti13  1  0.965434  0.443380  0.408814  1
  Ti  Ti14  1  0.721650  0.931960  0.653611  1
  Ti  Ti15  1  0.721650  0.443300  0.653611  1
  Ti  Ti16  1  0.469133  0.938266  0.908007  1
  Ti  Ti17  1  0.469133  0.438874  0.908007  1
  Ti  Ti18  1  0.594294  0.188587  0.782881  1
  Ti  Ti19  1  0.969741  0.438874  0.908007  1
  O  O20  1  0.074673  0.585417  0.096162  1
  O  O21  1  0.510745  0.585417  0.096162  1
  O  O22  1  0.402252  0.804504  0.206756  1
  O  O23  1  0.035063  0.070125  0.105188  1
  O  O24  1  0.131192  0.795445  0.459698  1
  O  O25  1  0.924010  0.848020  0.213251  1
  O  O26  1  0.365231  0.289241  0.213251  1
  O  O27  1  0.259969  0.519939  0.347333  1
  O  O28  1  0.510745  0.021490  0.096162  1
  O  O29  1  0.023777  0.579482  0.603260  1
  O  O30  1  0.259969  0.087362  0.347333  1
  O  O31  1  0.153786  0.307571  0.461357  1
  O  O32  1  0.785406  0.570812  0.356217  1
  O  O33  1  0.664253  0.795445  0.459698  1
  O  O34  1  0.924010  0.289241  0.213251  1
  O  O35  1  0.424734  0.849467  0.715426  1
  O  O36  1  0.664253  0.328506  0.459698  1
  O  O37  1  0.023777  0.047554  0.603260  1
  O  O38  1  0.827393  0.087362  0.347333  1
  O  O39  1  0.555705  0.579482  0.603260  1
  O  O40  1  0.902206  0.804411  0.706616  1
  O  O41  1  0.424734  0.290692  0.715426  1
  O  O42  1  0.533923  0.067847  0.601770  1
  O  O43  1  0.174635  0.787841  0.962475  1
  O  O44  1  0.284019  0.568038  0.852058  1
  O  O45  1  0.174635  0.349269  0.962475  1
  O  O46  1  0.865958  0.290692  0.715426  1
  O  O47  1  0.613206  0.787841  0.962475  1
  O  O48  1  0.324902  0.086032  0.847162  1
  O  O49  1  0.761130  0.522260  0.847162  1
  O  O50  1  0.652462  0.304925  0.957386  1
  O  O51  1  0.761130  0.086032  0.847162  1
