# generated using pymatgen
data_Li3Ti4O8
_symmetry_space_group_name_H-M   'P 1'
_cell_length_a   5.80700856
_cell_length_b   5.79954578
_cell_length_c   5.88270185
_cell_angle_alpha   60.40227502
_cell_angle_beta   60.42473376
_cell_angle_gamma   90.00000002
_symmetry_Int_Tables_number   1
_chemical_formula_structural   Li3Ti4O8
_chemical_formula_sum   'Li3 Ti4 O8'
_cell_volume   141.82345122
_cell_formula_units_Z   1
loop_
 _symmetry_equiv_pos_site_id
 _symmetry_equiv_pos_as_xyz
  1  'x, y, z'
loop_
 _atom_site_type_symbol
 _atom_site_label
 _atom_site_symmetry_multiplicity
 _atom_site_fract_x
 _atom_site_fract_y
 _atom_site_fract_z
 _atom_site_occupancy
  Li  Li1  1  0.500000  0.500000  0.500000  1
  Li  Li2  1  0.000000  0.500000  0.500000  1
  Li  Li3  1  0.000000  0.500000  0.000000  1
  Ti  Ti4  1  0.500000  0.500000  0.000000  1
  Ti  Ti5  1  0.500000  0.000000  0.500000  1
  Ti  Ti6  1  0.000000  0.000000  0.500000  1
  Ti  Ti7  1  0.000000  0.000000  0.000000  1
  O  O8  1  0.758250  0.749888  0.992054  1
  O  O9  1  0.249695  0.749888  0.992054  1
  O  O10  1  0.750141  0.744496  0.499718  1
  O  O11  1  0.244151  0.772268  0.511699  1
  O  O12  1  0.755849  0.227732  0.488301  1
  O  O13  1  0.249859  0.255504  0.500282  1
  O  O14  1  0.750305  0.250112  0.007946  1
  O  O15  1  0.241750  0.250112  0.007946  1
