# generated using pymatgen
data_Li7Ti11O24
_symmetry_space_group_name_H-M   'P 1'
_cell_length_a   5.08480161
_cell_length_b   9.73636195
_cell_length_c   8.86977481
_cell_angle_alpha   90.00000000
_cell_angle_beta   90.00000000
_cell_angle_gamma   89.69134002
_symmetry_Int_Tables_number   1
_chemical_formula_structural   Li7Ti11O24
_chemical_formula_sum   'Li7 Ti11 O24'
_cell_volume   439.11372865
_cell_formula_units_Z   1
loop_
 _symmetry_equiv_pos_site_id
 _symmetry_equiv_pos_as_xyz
  1  'x, y, z'
loop_
 _atom_site_type_symbol
 _atom_site_label
 _atom_site_symmetry_multiplicity
 _atom_site_fract_x
 _atom_site_fract_y
 _atom_site_fract_z
 _atom_site_occupancy
  Li  Li1  1  0.474107  0.350263  0.916667  1
  Li  Li2  1  0.561916  0.965467  0.084360  1
  Li  Li3  1  0.561916  0.965467  0.748974  1
  Li  Li4  1  0.558474  0.962585  0.416667  1
  Li  Li5  1  0.935026  0.458930  0.076710  1
  Li  Li6  1  0.942341  0.462189  0.416667  1
  Li  Li7  1  0.935026  0.458930  0.756623  1
  Ti  Ti8  1  0.022446  0.856843  0.246322  1
  Ti  Ti9  1  0.022446  0.856843  0.587011  1
  Ti  Ti10  1  0.017721  0.856913  0.916667  1
  Ti  Ti11  1  0.477372  0.357314  0.240746  1
  Ti  Ti12  1  0.477372  0.357314  0.592587  1
  Ti  Ti13  1  0.512631  0.631096  0.079183  1
  Ti  Ti14  1  0.512631  0.631096  0.754150  1
  Ti  Ti15  1  0.517273  0.638979  0.416667  1
  Ti  Ti16  1  0.985224  0.144658  0.082246  1
  Ti  Ti17  1  0.974100  0.138675  0.416667  1
  Ti  Ti18  1  0.985224  0.144658  0.751087  1
  O  O19  1  0.198221  0.222722  0.252333  1
  O  O20  1  0.167704  0.221437  0.916667  1
  O  O21  1  0.198221  0.222722  0.581000  1
  O  O22  1  0.194827  0.965034  0.085631  1
  O  O23  1  0.190181  0.964001  0.416667  1
  O  O24  1  0.194827  0.965034  0.747703  1
  O  O25  1  0.302487  0.469265  0.094382  1
  O  O26  1  0.314129  0.464035  0.416667  1
  O  O27  1  0.302487  0.469265  0.738952  1
  O  O28  1  0.311011  0.725850  0.579994  1
  O  O29  1  0.308592  0.726099  0.916667  1
  O  O30  1  0.311011  0.725850  0.253339  1
  O  O31  1  0.717110  0.283146  0.098442  1
  O  O32  1  0.717110  0.283146  0.734891  1
  O  O33  1  0.705599  0.285932  0.416667  1
  O  O34  1  0.715246  0.534469  0.249301  1
  O  O35  1  0.715246  0.534469  0.584032  1
  O  O36  1  0.723168  0.548271  0.916667  1
  O  O37  1  0.786437  0.032287  0.251316  1
  O  O38  1  0.786437  0.032287  0.582017  1
  O  O39  1  0.790504  0.034152  0.916667  1
  O  O40  1  0.789229  0.787836  0.086208  1
  O  O41  1  0.797744  0.781758  0.416667  1
  O  O42  1  0.789229  0.787836  0.747126  1
