# generated using pymatgen
data_KSn
_symmetry_space_group_name_H-M   'P 1'
_cell_length_a   11.52309984
_cell_length_b   11.52309987
_cell_length_c   12.47524987
_cell_angle_alpha   117.50580180
_cell_angle_beta   117.50580186
_cell_angle_gamma   90.00000136
_symmetry_Int_Tables_number   1
_chemical_formula_structural   KSn
_chemical_formula_sum   'K16 Sn16'
_cell_volume   1254.35576840
_cell_formula_units_Z   16
loop_
 _symmetry_equiv_pos_site_id
 _symmetry_equiv_pos_as_xyz
  1  'x, y, z'
loop_
 _atom_site_type_symbol
 _atom_site_label
 _atom_site_symmetry_multiplicity
 _atom_site_fract_x
 _atom_site_fract_y
 _atom_site_fract_z
 _atom_site_occupancy
  K  K1  1  0.750000  0.112456  0.000000  1
  K  K2  1  0.246797  0.253203  0.250000  1
  K  K3  1  0.503203  0.753203  0.250000  1
  K  K4  1  0.250000  0.887544  0.000000  1
  K  K5  1  0.746797  0.996797  0.250000  1
  K  K6  1  0.003203  0.496797  0.250000  1
  K  K7  1  0.112456  0.250000  0.500000  1
  K  K8  1  0.250000  0.387544  0.000000  1
  K  K9  1  0.996797  0.503203  0.750000  1
  K  K10  1  0.750000  0.612456  0.000000  1
  K  K11  1  0.387544  0.750000  0.500000  1
  K  K12  1  0.753203  0.746797  0.750000  1
  K  K13  1  0.887544  0.750000  0.500000  1
  K  K14  1  0.253203  0.003203  0.750000  1
  K  K15  1  0.496797  0.246797  0.750000  1
  K  K16  1  0.612456  0.250000  0.500000  1
  Sn  Sn17  1  0.568195  0.496338  0.362569  1
  Sn  Sn18  1  0.931805  0.133769  0.637431  1
  Sn  Sn19  1  0.133769  0.705626  0.137431  1
  Sn  Sn20  1  0.068195  0.866231  0.362569  1
  Sn  Sn21  1  0.633769  0.431805  0.137431  1
  Sn  Sn22  1  0.866231  0.294374  0.862569  1
  Sn  Sn23  1  0.996338  0.068195  0.862569  1
  Sn  Sn24  1  0.503662  0.205626  0.137431  1
  Sn  Sn25  1  0.496338  0.794374  0.862569  1
  Sn  Sn26  1  0.431805  0.503662  0.637431  1
  Sn  Sn27  1  0.705626  0.003662  0.637431  1
  Sn  Sn28  1  0.003662  0.931805  0.137431  1
  Sn  Sn29  1  0.294374  0.996338  0.362569  1
  Sn  Sn30  1  0.794374  0.366231  0.362569  1
  Sn  Sn31  1  0.366231  0.568195  0.862569  1
  Sn  Sn32  1  0.205626  0.633769  0.637431  1
