# generated using pymatgen
data_LiTi2O4
_symmetry_space_group_name_H-M   'P 1'
_cell_length_a   5.30149786
_cell_length_b   5.14441153
_cell_length_c   5.99503556
_cell_angle_alpha   89.99935631
_cell_angle_beta   89.99781886
_cell_angle_gamma   90.68874020
_symmetry_Int_Tables_number   1
_chemical_formula_structural   LiTi2O4
_chemical_formula_sum   'Li2 Ti4 O8'
_cell_volume   163.49131166
_cell_formula_units_Z   2
loop_
 _symmetry_equiv_pos_site_id
 _symmetry_equiv_pos_as_xyz
  1  'x, y, z'
loop_
 _atom_site_type_symbol
 _atom_site_label
 _atom_site_symmetry_multiplicity
 _atom_site_fract_x
 _atom_site_fract_y
 _atom_site_fract_z
 _atom_site_occupancy
  Li  Li1  1  0.437209  0.322877  0.499907  1
  Li  Li2  1  0.562827  0.677205  0.000112  1
  Ti  Ti3  1  0.000004  0.499953  0.750058  1
  Ti  Ti4  1  0.000001  0.499944  0.249958  1
  Ti  Ti5  1  0.985104  0.974945  0.500014  1
  Ti  Ti6  1  0.014899  0.025078  -0.000000  1
  O  O7  1  0.802144  0.832660  0.760740  1
  O  O8  1  0.204130  0.657319  0.500003  1
  O  O9  1  0.802155  0.832685  0.239322  1
  O  O10  1  0.198163  0.666183  0.000010  1
  O  O11  1  0.197893  0.167394  0.739213  1
  O  O12  1  0.801860  0.333760  0.500008  1
  O  O13  1  0.197892  0.167372  0.260765  1
  O  O14  1  0.795716  0.342869  0.000012  1
