# generated using pymatgen
data_LiTi3O6
_symmetry_space_group_name_H-M   'P 1'
_cell_length_a   8.83078255
_cell_length_b   5.40419036
_cell_length_c   5.40418981
_cell_angle_alpha   117.64588423
_cell_angle_beta   80.54975584
_cell_angle_gamma   80.54975315
_symmetry_Int_Tables_number   1
_chemical_formula_structural   LiTi3O6
_chemical_formula_sum   'Li2 Ti6 O12'
_cell_volume   216.66561543
_cell_formula_units_Z   2
loop_
 _symmetry_equiv_pos_site_id
 _symmetry_equiv_pos_as_xyz
  1  'x, y, z'
loop_
 _atom_site_type_symbol
 _atom_site_label
 _atom_site_symmetry_multiplicity
 _atom_site_fract_x
 _atom_site_fract_y
 _atom_site_fract_z
 _atom_site_occupancy
  Li  Li1  1  0.333243  0.583193  0.083647  1
  Li  Li2  1  0.833243  0.333647  0.333193  1
  Ti  Ti3  1  0.170702  0.164442  0.164589  1
  Ti  Ti4  1  0.995967  0.752154  0.251999  1
  Ti  Ti5  1  0.333479  0.083519  0.583136  1
  Ti  Ti6  1  0.495967  0.501999  0.502154  1
  Ti  Ti7  1  0.670702  0.414589  0.914442  1
  Ti  Ti8  1  0.833479  0.833136  0.833519  1
  O  O9  1  0.994756  0.529540  0.460999  1
  O  O10  1  0.994709  0.976083  0.044229  1
  O  O11  1  0.171860  0.387162  0.955763  1
  O  O12  1  0.333395  0.301137  0.365341  1
  O  O13  1  0.171885  0.940911  0.372263  1
  O  O14  1  0.494709  0.294229  0.726083  1
  O  O15  1  0.671860  0.205763  0.137162  1
  O  O16  1  0.333338  0.865552  0.801007  1
  O  O17  1  0.494756  0.710999  0.279540  1
  O  O18  1  0.833338  0.051007  0.615552  1
  O  O19  1  0.671885  0.622263  0.690911  1
  O  O20  1  0.833395  0.615341  0.051137  1
