# generated using pymatgen
data_Li2TiO3
_symmetry_space_group_name_H-M   'P 1'
_cell_length_a   5.91741793
_cell_length_b   17.69055312
_cell_length_c   15.64299813
_cell_angle_alpha   19.20308761
_cell_angle_beta   55.49157674
_cell_angle_gamma   60.21358369
_symmetry_Int_Tables_number   1
_chemical_formula_structural   Li2TiO3
_chemical_formula_sum   'Li16 Ti8 O24'
_cell_volume   439.40533712
_cell_formula_units_Z   8
loop_
 _symmetry_equiv_pos_site_id
 _symmetry_equiv_pos_as_xyz
  1  'x, y, z'
loop_
 _atom_site_type_symbol
 _atom_site_label
 _atom_site_symmetry_multiplicity
 _atom_site_fract_x
 _atom_site_fract_y
 _atom_site_fract_z
 _atom_site_occupancy
  Li  Li1  1  0.131284  0.126442  0.121950  1
  Li  Li2  1  0.121703  0.296969  0.120908  1
  Li  Li3  1  0.112405  0.457750  0.128319  1
  Li  Li4  1  0.624312  0.127535  0.122273  1
  Li  Li5  1  0.133507  0.625818  0.121785  1
  Li  Li6  1  0.620799  0.289974  0.126961  1
  Li  Li7  1  0.627101  0.455874  0.129518  1
  Li  Li8  1  0.122313  0.793442  0.125085  1
  Li  Li9  1  0.130249  0.290586  0.625646  1
  Li  Li10  1  0.119738  0.956567  0.130721  1
  Li  Li11  1  0.628638  0.615434  0.132370  1
  Li  Li12  1  0.626925  0.126900  0.623047  1
  Li  Li13  1  0.127641  0.623117  0.625834  1
  Li  Li14  1  0.617974  0.966167  0.121279  1
  Li  Li15  1  0.623219  0.457827  0.627289  1
  Li  Li16  1  0.118163  0.956763  0.631206  1
  Ti  Ti17  1  0.145673  0.147532  0.594891  1
  Ti  Ti18  1  0.106003  0.436877  0.654112  1
  Ti  Ti19  1  0.625056  0.792280  0.124392  1
  Ti  Ti20  1  0.628623  0.292167  0.625076  1
  Ti  Ti21  1  0.126501  0.797723  0.618797  1
  Ti  Ti22  1  0.618987  0.622196  0.620573  1
  Ti  Ti23  1  0.624201  0.786749  0.631590  1
  Ti  Ti24  1  0.632066  0.962809  0.629010  1
  O  O25  1  0.371807  0.013417  0.404283  1
  O  O26  1  0.371876  0.190861  0.401386  1
  O  O27  1  0.354465  0.355138  0.397777  1
  O  O28  1  0.874141  0.024045  0.395718  1
  O  O29  1  0.406142  0.043209  0.873425  1
  O  O30  1  0.860638  0.190783  0.391093  1
  O  O31  1  0.390225  0.536555  0.382649  1
  O  O32  1  0.376451  0.225536  0.850035  1
  O  O33  1  0.384699  0.705976  0.364602  1
  O  O34  1  0.876414  0.358992  0.399417  1
  O  O35  1  0.390086  0.393371  0.860131  1
  O  O36  1  0.374398  0.860501  0.398189  1
  O  O37  1  0.863204  0.047215  0.867374  1
  O  O38  1  0.847614  0.540867  0.376250  1
  O  O39  1  0.898871  0.228265  0.852735  1
  O  O40  1  0.373987  0.560350  0.854466  1
  O  O41  1  0.875931  0.695877  0.396319  1
  O  O42  1  0.403015  0.724318  0.846951  1
  O  O43  1  0.880371  0.393107  0.848427  1
  O  O44  1  0.843907  0.858071  0.405511  1
  O  O45  1  0.874978  0.570695  0.846343  1
  O  O46  1  0.375570  0.887991  0.853841  1
  O  O47  1  0.874172  0.724179  0.851294  1
  O  O48  1  0.869718  0.879208  0.883443  1
