# generated using pymatgen
data_LiTi2O4
_symmetry_space_group_name_H-M   'P 1'
_cell_length_a   5.95934013
_cell_length_b   5.94241074
_cell_length_c   5.99779547
_cell_angle_alpha   89.98910100
_cell_angle_beta   59.78910120
_cell_angle_gamma   60.10483204
_symmetry_Int_Tables_number   1
_chemical_formula_structural   LiTi2O4
_chemical_formula_sum   'Li2 Ti4 O8'
_cell_volume   149.96088593
_cell_formula_units_Z   2
loop_
 _symmetry_equiv_pos_site_id
 _symmetry_equiv_pos_as_xyz
  1  'x, y, z'
loop_
 _atom_site_type_symbol
 _atom_site_label
 _atom_site_symmetry_multiplicity
 _atom_site_fract_x
 _atom_site_fract_y
 _atom_site_fract_z
 _atom_site_occupancy
  Li  Li1  1  0.000000  0.500000  0.500000  1
  Li  Li2  1  0.000000  0.000000  0.500000  1
  Ti  Ti3  1  0.500000  0.000000  0.500000  1
  Ti  Ti4  1  0.500000  0.000000  0.000000  1
  Ti  Ti5  1  0.000000  0.500000  0.000000  1
  Ti  Ti6  1  0.000000  0.000000  0.000000  1
  O  O7  1  0.974480  0.762747  0.780072  1
  O  O8  1  0.974434  0.762721  0.245514  1
  O  O9  1  0.479567  0.788398  0.760184  1
  O  O10  1  0.520631  0.767883  0.239758  1
  O  O11  1  0.479369  0.232117  0.760242  1
  O  O12  1  0.520433  0.211602  0.239817  1
  O  O13  1  0.025566  0.237279  0.754486  1
  O  O14  1  0.025520  0.237253  0.219928  1
