# generated using pymatgen
data_LiTi2O4
_symmetry_space_group_name_H-M   'P 1'
_cell_length_a   5.11262011
_cell_length_b   9.76571494
_cell_length_c   2.95518940
_cell_angle_alpha   90.00000000
_cell_angle_beta   90.00000000
_cell_angle_gamma   90.00000000
_symmetry_Int_Tables_number   1
_chemical_formula_structural   LiTi2O4
_chemical_formula_sum   'Li2 Ti4 O8'
_cell_volume   147.54785063
_cell_formula_units_Z   2
loop_
 _symmetry_equiv_pos_site_id
 _symmetry_equiv_pos_as_xyz
  1  'x, y, z'
loop_
 _atom_site_type_symbol
 _atom_site_label
 _atom_site_symmetry_multiplicity
 _atom_site_fract_x
 _atom_site_fract_y
 _atom_site_fract_z
 _atom_site_occupancy
  Li  Li1  1  0.562590  0.966959  0.250000  1
  Li  Li2  1  0.937410  0.466959  0.250000  1
  Ti  Ti3  1  0.023100  0.856604  0.750000  1
  Ti  Ti4  1  0.476900  0.356604  0.750000  1
  Ti  Ti5  1  0.515800  0.638286  0.250000  1
  Ti  Ti6  1  0.984200  0.138286  0.250000  1
  O  O7  1  0.195396  0.222777  0.750000  1
  O  O8  1  0.197161  0.965298  0.250000  1
  O  O9  1  0.302840  0.465298  0.250000  1
  O  O10  1  0.304604  0.722777  0.750000  1
  O  O11  1  0.710599  0.284713  0.250000  1
  O  O12  1  0.711206  0.534083  0.750000  1
  O  O13  1  0.788794  0.034083  0.750000  1
  O  O14  1  0.789401  0.784713  0.250000  1
