# generated using pymatgen
data_Li6Ti2O7
_symmetry_space_group_name_H-M   'P 1'
_cell_length_a   5.76383208
_cell_length_b   5.85035805
_cell_length_c   5.13153444
_cell_angle_alpha   90.05063804
_cell_angle_beta   107.88738537
_cell_angle_gamma   59.61287403
_symmetry_Int_Tables_number   1
_chemical_formula_structural   Li6Ti2O7
_chemical_formula_sum   'Li6 Ti2 O7'
_cell_volume   139.51403049
_cell_formula_units_Z   1
loop_
 _symmetry_equiv_pos_site_id
 _symmetry_equiv_pos_as_xyz
  1  'x, y, z'
loop_
 _atom_site_type_symbol
 _atom_site_label
 _atom_site_symmetry_multiplicity
 _atom_site_fract_x
 _atom_site_fract_y
 _atom_site_fract_z
 _atom_site_occupancy
  Li  Li1  1  0.270516  0.652763  0.774117  1
  Li  Li2  1  0.266770  0.101049  0.768776  1
  Li  Li3  1  0.258180  0.378733  0.185000  1
  Li  Li4  1  0.743328  0.640446  0.816326  1
  Li  Li5  1  0.735743  0.369712  0.232150  1
  Li  Li6  1  0.728727  0.926721  0.226761  1
  Ti  Ti7  1  0.269534  0.875273  0.260260  1
  Ti  Ti8  1  0.728529  0.148047  0.737355  1
  O  O9  1  0.000809  0.006513  0.501884  1
  O  O10  1  0.001495  0.782067  0.002678  1
  O  O11  1  0.491583  0.267004  0.947889  1
  O  O12  1  0.491927  0.021974  0.497008  1
  O  O13  1  0.511863  0.512634  0.506266  1
  O  O14  1  0.509513  0.757933  0.053853  1
  O  O15  1  0.001726  0.237141  0.002147  1
