# generated using pymatgen
data_Li5Ti12O24
_symmetry_space_group_name_H-M   'P 1'
_cell_length_a   5.08802539
_cell_length_b   9.73782267
_cell_length_c   8.88726884
_cell_angle_alpha   90.00000000
_cell_angle_beta   90.00000000
_cell_angle_gamma   90.10356667
_symmetry_Int_Tables_number   1
_chemical_formula_structural   Li5Ti12O24
_chemical_formula_sum   'Li5 Ti12 O24'
_cell_volume   440.33047134
_cell_formula_units_Z   1
loop_
 _symmetry_equiv_pos_site_id
 _symmetry_equiv_pos_as_xyz
  1  'x, y, z'
loop_
 _atom_site_type_symbol
 _atom_site_label
 _atom_site_symmetry_multiplicity
 _atom_site_fract_x
 _atom_site_fract_y
 _atom_site_fract_z
 _atom_site_occupancy
  Li  Li1  1  0.428387  0.032280  0.250000  1
  Li  Li2  1  0.567928  0.962664  0.750000  1
  Li  Li3  1  0.938953  0.465889  0.750000  1
  Li  Li4  1  0.933791  0.466573  0.083564  1
  Li  Li5  1  0.933791  0.466573  0.416436  1
  Ti  Ti6  1  0.003004  0.855189  0.250000  1
  Ti  Ti7  1  0.028104  0.860330  0.576818  1
  Ti  Ti8  1  0.028104  0.860330  0.923182  1
  Ti  Ti9  1  0.478917  0.357843  0.914275  1
  Ti  Ti10  1  0.469075  0.356717  0.250000  1
  Ti  Ti11  1  0.478917  0.357843  0.585725  1
  Ti  Ti12  1  0.512170  0.642115  0.085403  1
  Ti  Ti13  1  0.523943  0.642790  0.750000  1
  Ti  Ti14  1  0.512170  0.642115  0.414597  1
  Ti  Ti15  1  0.997568  0.140258  0.750000  1
  Ti  Ti16  1  0.968799  0.134680  0.423601  1
  Ti  Ti17  1  0.968799  0.134680  0.076399  1
  O  O18  1  0.195565  0.224939  0.922654  1
  O  O19  1  0.208209  0.212814  0.250000  1
  O  O20  1  0.195565  0.224939  0.577346  1
  O  O21  1  0.195502  0.964485  0.086730  1
  O  O22  1  0.195502  0.964485  0.413270  1
  O  O23  1  0.200242  0.964367  0.750000  1
  O  O24  1  0.302297  0.465619  0.083659  1
  O  O25  1  0.302297  0.465619  0.416341  1
  O  O26  1  0.305254  0.465421  0.750000  1
  O  O27  1  0.306613  0.723061  0.913436  1
  O  O28  1  0.306613  0.723061  0.586564  1
  O  O29  1  0.302572  0.725457  0.250000  1
  O  O30  1  0.714489  0.284668  0.750000  1
  O  O31  1  0.709978  0.286230  0.086341  1
  O  O32  1  0.709978  0.286230  0.413659  1
  O  O33  1  0.706297  0.534802  0.250000  1
  O  O34  1  0.709219  0.533724  0.583927  1
  O  O35  1  0.709219  0.533724  0.916073  1
  O  O36  1  0.798691  0.034957  0.587205  1
  O  O37  1  0.795710  0.036245  0.250000  1
  O  O38  1  0.798691  0.034957  0.912795  1
  O  O39  1  0.795080  0.785687  0.750000  1
  O  O40  1  0.804749  0.773775  0.078756  1
  O  O41  1  0.804749  0.773775  0.421244  1
