# generated using pymatgen
data_Li2Ti3O6
_symmetry_space_group_name_H-M   'P 1'
_cell_length_a   9.02649071
_cell_length_b   5.18007108
_cell_length_c   5.18007108
_cell_angle_alpha   113.13183295
_cell_angle_beta   79.92982131
_cell_angle_gamma   79.92981844
_symmetry_Int_Tables_number   1
_chemical_formula_structural   Li2Ti3O6
_chemical_formula_sum   'Li4 Ti6 O12'
_cell_volume   211.22246370
_cell_formula_units_Z   2
loop_
 _symmetry_equiv_pos_site_id
 _symmetry_equiv_pos_as_xyz
  1  'x, y, z'
loop_
 _atom_site_type_symbol
 _atom_site_label
 _atom_site_symmetry_multiplicity
 _atom_site_fract_x
 _atom_site_fract_y
 _atom_site_fract_z
 _atom_site_occupancy
  Li  Li1  1  0.004973  0.247661  0.747353  1
  Li  Li2  1  0.504973  0.997353  0.997661  1
  Li  Li3  1  0.328329  0.585995  0.085582  1
  Li  Li4  1  0.828329  0.335582  0.335995  1
  Ti  Ti5  1  0.166690  0.167412  0.165939  1
  Ti  Ti6  1  0.996766  0.750656  0.252366  1
  Ti  Ti7  1  0.336594  0.080941  0.582708  1
  Ti  Ti8  1  0.496766  0.502366  0.500656  1
  Ti  Ti9  1  0.666690  0.415939  0.917412  1
  Ti  Ti10  1  0.836594  0.832708  0.830941  1
  O  O11  1  0.995423  0.505795  0.486868  1
  O  O12  1  0.995489  0.998114  0.018401  1
  O  O13  1  0.166669  0.403425  0.929946  1
  O  O14  1  0.337859  0.314970  0.335160  1
  O  O15  1  0.166660  0.930829  0.402600  1
  O  O16  1  0.495489  0.268401  0.748114  1
  O  O17  1  0.666669  0.179946  0.153425  1
  O  O18  1  0.337879  0.846452  0.827492  1
  O  O19  1  0.495423  0.736868  0.255795  1
  O  O20  1  0.837879  0.077492  0.596452  1
  O  O21  1  0.666660  0.652600  0.680829  1
  O  O22  1  0.837859  0.585160  0.064970  1
