# generated using pymatgen
data_LiTi2O4
_symmetry_space_group_name_H-M   'P 1'
_cell_length_a   5.93889740
_cell_length_b   5.93715020
_cell_length_c   9.63637865
_cell_angle_alpha   90.00036540
_cell_angle_beta   89.99981974
_cell_angle_gamma   119.99026399
_symmetry_Int_Tables_number   1
_chemical_formula_structural   LiTi2O4
_chemical_formula_sum   'Li4 Ti8 O16'
_cell_volume   294.28691034
_cell_formula_units_Z   4
loop_
 _symmetry_equiv_pos_site_id
 _symmetry_equiv_pos_as_xyz
  1  'x, y, z'
loop_
 _atom_site_type_symbol
 _atom_site_label
 _atom_site_symmetry_multiplicity
 _atom_site_fract_x
 _atom_site_fract_y
 _atom_site_fract_z
 _atom_site_occupancy
  Li  Li1  1  0.333303  0.666652  0.893735  1
  Li  Li2  1  0.000081  0.000060  0.995048  1
  Li  Li3  1  0.999919  0.999980  0.495048  1
  Li  Li4  1  0.666698  0.333350  0.393735  1
  Ti  Ti5  1  0.170888  0.829168  0.215465  1
  Ti  Ti6  1  0.658332  0.829163  0.215492  1
  Ti  Ti7  1  0.341668  0.170831  0.715492  1
  Ti  Ti8  1  0.829083  0.170845  0.715460  1
  Ti  Ti9  1  0.333339  0.666672  0.488881  1
  Ti  Ti10  1  0.170917  0.341762  0.215460  1
  Ti  Ti11  1  0.666661  0.333333  0.988881  1
  Ti  Ti12  1  0.829112  0.658280  0.715465  1
  O  O13  1  0.166261  0.833661  0.598341  1
  O  O14  1  0.039844  0.519925  0.340753  1
  O  O15  1  0.333470  0.666757  0.102897  1
  O  O16  1  0.999769  0.999899  0.309921  1
  O  O17  1  0.000231  0.000130  0.809921  1
  O  O18  1  0.166271  0.332648  0.598345  1
  O  O19  1  0.479974  0.960265  0.340638  1
  O  O20  1  0.479977  0.519724  0.340645  1
  O  O21  1  0.332732  0.166372  0.098298  1
  O  O22  1  0.667268  0.833640  0.598298  1
  O  O23  1  0.520026  0.480291  0.840638  1
  O  O24  1  0.520023  0.039747  0.840645  1
  O  O25  1  0.666530  0.333287  0.602897  1
  O  O26  1  0.833739  0.667400  0.098341  1
  O  O27  1  0.960156  0.480081  0.840753  1
  O  O28  1  0.833729  0.166377  0.098345  1
