# generated using pymatgen
data_Li3Ti4O8
_symmetry_space_group_name_H-M   'P 1'
_cell_length_a   5.12622331
_cell_length_b   9.93246051
_cell_length_c   2.94573330
_cell_angle_alpha   90.00000000
_cell_angle_beta   90.00000000
_cell_angle_gamma   92.43715359
_symmetry_Int_Tables_number   1
_chemical_formula_structural   Li3Ti4O8
_chemical_formula_sum   'Li3 Ti4 O8'
_cell_volume   149.84932150
_cell_formula_units_Z   1
loop_
 _symmetry_equiv_pos_site_id
 _symmetry_equiv_pos_as_xyz
  1  'x, y, z'
loop_
 _atom_site_type_symbol
 _atom_site_label
 _atom_site_symmetry_multiplicity
 _atom_site_fract_x
 _atom_site_fract_y
 _atom_site_fract_z
 _atom_site_occupancy
  Li  Li1  1  0.413899  0.085823  0.750000  1
  Li  Li2  1  0.573581  0.903729  0.250000  1
  Li  Li3  1  0.929307  0.456639  0.250000  1
  Ti  Ti4  1  0.059151  0.855332  0.750000  1
  Ti  Ti5  1  0.452471  0.365461  0.750000  1
  Ti  Ti6  1  0.539604  0.633820  0.250000  1
  Ti  Ti7  1  0.939657  0.137563  0.250000  1
  O  O8  1  0.160058  0.226305  0.750000  1
  O  O9  1  0.223079  0.983307  0.250000  1
  O  O10  1  0.290606  0.474073  0.250000  1
  O  O11  1  0.364412  0.744620  0.750000  1
  O  O12  1  0.661977  0.271332  0.250000  1
  O  O13  1  0.719350  0.525707  0.750000  1
  O  O14  1  0.767827  0.016207  0.750000  1
  O  O15  1  0.844623  0.771281  0.250000  1
