# generated using pymatgen
data_Li2Ti2O5
_symmetry_space_group_name_H-M   'P 1'
_cell_length_a   8.60759842
_cell_length_b   5.31635140
_cell_length_c   11.58563953
_cell_angle_alpha   90.00000000
_cell_angle_beta   110.82020906
_cell_angle_gamma   90.00000000
_symmetry_Int_Tables_number   1
_chemical_formula_structural   Li2Ti2O5
_chemical_formula_sum   'Li8 Ti8 O20'
_cell_volume   495.55070820
_cell_formula_units_Z   4
loop_
 _symmetry_equiv_pos_site_id
 _symmetry_equiv_pos_as_xyz
  1  'x, y, z'
loop_
 _atom_site_type_symbol
 _atom_site_label
 _atom_site_symmetry_multiplicity
 _atom_site_fract_x
 _atom_site_fract_y
 _atom_site_fract_z
 _atom_site_occupancy
  Li  Li1  1  0.116529  0.171051  0.015264  1
  Li  Li2  1  0.215157  0.342385  0.309560  1
  Li  Li3  1  0.284843  0.842385  0.190440  1
  Li  Li4  1  0.383471  0.671051  0.484736  1
  Li  Li5  1  0.616529  0.328949  0.515264  1
  Li  Li6  1  0.715157  0.157615  0.809560  1
  Li  Li7  1  0.784843  0.657615  0.690440  1
  Li  Li8  1  0.883471  0.828949  0.984736  1
  Ti  Ti9  1  0.169344  0.667126  0.886429  1
  Ti  Ti10  1  0.990060  0.835860  0.286743  1
  Ti  Ti11  1  0.330656  0.167126  0.613571  1
  Ti  Ti12  1  0.490060  0.664140  0.786743  1
  Ti  Ti13  1  0.509940  0.335860  0.213257  1
  Ti  Ti14  1  0.669344  0.832874  0.386429  1
  Ti  Ti15  1  0.009940  0.164140  0.713257  1
  Ti  Ti16  1  0.830656  0.332874  0.113571  1
  O  O17  1  0.129475  0.786134  0.015405  1
  O  O18  1  0.128371  0.321827  0.862070  1
  O  O19  1  0.985714  0.179137  0.251548  1
  O  O20  1  0.116923  0.229525  0.603955  1
  O  O21  1  0.383077  0.729525  0.896045  1
  O  O22  1  0.197341  0.729340  0.328471  1
  O  O23  1  0.371629  0.821827  0.637930  1
  O  O24  1  0.370525  0.286134  0.484595  1
  O  O25  1  0.302659  0.229340  0.171529  1
  O  O26  1  0.485714  0.320863  0.751548  1
  O  O27  1  0.514286  0.679137  0.248452  1
  O  O28  1  0.697341  0.770660  0.828471  1
  O  O29  1  0.629475  0.713866  0.515405  1
  O  O30  1  0.628371  0.178173  0.362070  1
  O  O31  1  0.802659  0.270660  0.671529  1
  O  O32  1  0.616923  0.270475  0.103955  1
  O  O33  1  0.883077  0.770475  0.396045  1
  O  O34  1  0.014286  0.820863  0.748452  1
  O  O35  1  0.871629  0.678173  0.137930  1
  O  O36  1  0.870525  0.213866  0.984595  1
