# generated using pymatgen
data_Li4Ti11O24
_symmetry_space_group_name_H-M   'P 1'
_cell_length_a   5.05666294
_cell_length_b   9.64578982
_cell_length_c   8.91622859
_cell_angle_alpha   89.95523093
_cell_angle_beta   89.95752784
_cell_angle_gamma   89.88364762
_symmetry_Int_Tables_number   1
_chemical_formula_structural   Li4Ti11O24
_chemical_formula_sum   'Li4 Ti11 O24'
_cell_volume   434.89242943
_cell_formula_units_Z   1
loop_
 _symmetry_equiv_pos_site_id
 _symmetry_equiv_pos_as_xyz
  1  'x, y, z'
loop_
 _atom_site_type_symbol
 _atom_site_label
 _atom_site_symmetry_multiplicity
 _atom_site_fract_x
 _atom_site_fract_y
 _atom_site_fract_z
 _atom_site_occupancy
  Li  Li1  1  0.476066  0.352029  0.917152  1
  Li  Li2  1  0.563220  0.965314  0.747727  1
  Li  Li3  1  0.933661  0.461464  0.749298  1
  Li  Li4  1  0.933794  0.461381  0.084530  1
  Ti  Ti5  1  0.022770  0.863429  0.249765  1
  Ti  Ti6  1  0.026298  0.858908  0.580727  1
  Ti  Ti7  1  0.013338  0.859591  0.920798  1
  Ti  Ti8  1  0.465774  0.355835  0.243991  1
  Ti  Ti9  1  0.477314  0.357989  0.588205  1
  Ti  Ti10  1  0.507049  0.630068  0.753577  1
  Ti  Ti11  1  0.507093  0.634672  0.082835  1
  Ti  Ti12  1  0.529103  0.636238  0.415287  1
  Ti  Ti13  1  0.993987  0.148630  0.753116  1
  Ti  Ti14  1  0.967168  0.141775  0.079011  1
  Ti  Ti15  1  0.957548  0.137420  0.416808  1
  O  O16  1  0.169439  0.220330  0.919267  1
  O  O17  1  0.187050  0.222001  0.250943  1
  O  O18  1  0.196235  0.220611  0.581607  1
  O  O19  1  0.185426  0.959469  0.418641  1
  O  O20  1  0.184375  0.959321  0.080729  1
  O  O21  1  0.195527  0.960037  0.750559  1
  O  O22  1  0.326237  0.462704  0.416730  1
  O  O23  1  0.301863  0.468597  0.092557  1
  O  O24  1  0.300214  0.466376  0.740507  1
  O  O25  1  0.303170  0.722596  0.915490  1
  O  O26  1  0.317894  0.724769  0.581013  1
  O  O27  1  0.321272  0.725347  0.253123  1
  O  O28  1  0.721927  0.284610  0.733256  1
  O  O29  1  0.716654  0.284830  0.099428  1
  O  O30  1  0.688049  0.274782  0.416532  1
  O  O31  1  0.700799  0.540519  0.243614  1
  O  O32  1  0.702699  0.540100  0.590477  1
  O  O33  1  0.709077  0.550343  0.915332  1
  O  O34  1  0.804805  0.036770  0.586639  1
  O  O35  1  0.807440  0.036585  0.252225  1
  O  O36  1  0.795844  0.038652  0.911234  1
  O  O37  1  0.794674  0.789517  0.748462  1
  O  O38  1  0.815447  0.776766  0.085148  1
  O  O39  1  0.819879  0.772186  0.416993  1
