# generated using pymatgen
data_Li(CoO2)2
_symmetry_space_group_name_H-M   'P 1'
_cell_length_a   5.67119476
_cell_length_b   5.66498836
_cell_length_c   5.66498798
_cell_angle_alpha   60.82541657
_cell_angle_beta   120.03624414
_cell_angle_gamma   120.03623909
_symmetry_Int_Tables_number   1
_chemical_formula_structural   Li(CoO2)2
_chemical_formula_sum   'Li2 Co4 O8'
_cell_volume   129.40544455
_cell_formula_units_Z   2
loop_
 _symmetry_equiv_pos_site_id
 _symmetry_equiv_pos_as_xyz
  1  'x, y, z'
loop_
 _atom_site_type_symbol
 _atom_site_label
 _atom_site_symmetry_multiplicity
 _atom_site_fract_x
 _atom_site_fract_y
 _atom_site_fract_z
 _atom_site_occupancy
  Li  Li1  1  0.500000  0.000000  0.500000  1
  Li  Li2  1  0.000000  0.000000  0.500000  1
  Co  Co3  1  0.500000  0.500000  0.500000  1
  Co  Co4  1  0.500000  0.500000  0.000000  1
  Co  Co5  1  0.000000  0.500000  0.000000  1
  Co  Co6  1  0.500000  0.000000  0.000000  1
  O  O7  1  0.738787  0.715537  0.762037  1
  O  O8  1  0.704824  0.733763  0.233763  1
  O  O9  1  0.261213  0.737963  0.784463  1
  O  O10  1  0.737299  0.266237  0.766237  1
  O  O11  1  0.262701  0.733763  0.233763  1
  O  O12  1  0.738787  0.262037  0.215537  1
  O  O13  1  0.295176  0.266237  0.766237  1
  O  O14  1  0.261213  0.284463  0.237962  1
