# generated using pymatgen
data_Li13Ti22O48
_symmetry_space_group_name_H-M   'P 1'
_cell_length_a   5.97419284
_cell_length_b   11.94435480
_cell_length_c   17.91958021
_cell_angle_alpha   59.96589458
_cell_angle_beta   59.99506624
_cell_angle_gamma   59.98027362
_symmetry_Int_Tables_number   1
_chemical_formula_structural   Li13Ti22O48
_chemical_formula_sum   'Li13 Ti22 O48'
_cell_volume   903.77799686
_cell_formula_units_Z   1
loop_
 _symmetry_equiv_pos_site_id
 _symmetry_equiv_pos_as_xyz
  1  'x, y, z'
loop_
 _atom_site_type_symbol
 _atom_site_label
 _atom_site_symmetry_multiplicity
 _atom_site_fract_x
 _atom_site_fract_y
 _atom_site_fract_z
 _atom_site_occupancy
  Li  Li1  1  0.002169  0.497830  0.999962  1
  Li  Li2  1  0.250394  0.127894  0.081204  1
  Li  Li3  1  0.003876  0.498410  0.331795  1
  Li  Li4  1  0.246407  0.126533  0.418002  1
  Li  Li5  1  0.249296  0.626800  0.082661  1
  Li  Li6  1  1.001444  0.497268  0.667523  1
  Li  Li7  1  1.000425  0.001606  0.331930  1
  Li  Li8  1  0.246886  0.124937  0.752166  1
  Li  Li9  1  0.250169  0.623484  0.417574  1
  Li  Li10  1  0.625066  0.312298  0.375093  1
  Li  Li11  1  0.245887  0.626315  0.751928  1
  Li  Li12  1  1.000300  0.998910  0.667182  1
  Li  Li13  1  0.624764  0.563176  0.874710  1
  O  O14  1  0.390624  0.193323  0.129826  1
  O  O15  1  0.384492  0.196022  0.279704  1
  O  O16  1  0.390559  0.417725  0.127789  1
  O  O17  1  0.833256  0.193276  0.129876  1
  O  O18  1  0.389901  0.694533  0.129122  1
  O  O19  1  0.410747  0.436715  0.279756  1
  O  O20  1  0.373912  0.188137  0.470110  1
  O  O21  1  0.386775  0.194160  0.612754  1
  O  O22  1  0.876076  0.204685  0.279508  1
  O  O23  1  0.388494  0.691902  0.279774  1
  O  O24  1  0.386794  0.918944  0.129481  1
  O  O25  1  0.863217  0.430107  0.137719  1
  O  O26  1  0.374165  0.420301  0.470335  1
  O  O27  1  0.833697  0.694479  0.129182  1
  O  O28  1  0.839447  0.188128  0.470121  1
  O  O29  1  0.876556  0.436674  0.279780  1
  O  O30  1  0.389592  0.194398  0.795381  1
  O  O31  1  0.415046  0.430605  0.621126  1
  O  O32  1  0.413343  0.931488  0.287622  1
  O  O33  1  0.387683  0.693880  0.462958  1
  O  O34  1  0.862954  0.705568  0.287722  1
  O  O35  1  0.386752  0.694234  0.612752  1
  O  O36  1  0.392108  0.192622  0.943559  1
  O  O37  1  0.859875  0.928947  0.140705  1
  O  O38  1  0.859073  0.208259  0.621767  1
  O  O39  1  0.864098  0.430168  0.470455  1
  O  O40  1  0.387085  0.419196  0.795753  1
  O  O41  1  0.387038  0.918569  0.462860  1
  O  O42  1  0.835533  0.194322  0.795406  1
  O  O43  1  0.835659  0.693804  0.463004  1
  O  O44  1  0.860318  0.430553  0.621188  1
  O  O45  1  0.860810  0.931394  0.287678  1
  O  O46  1  0.407951  0.419811  0.958668  1
  O  O47  1  0.374727  0.705635  0.791388  1
  O  O48  1  0.417814  0.930815  0.619869  1
  O  O49  1  0.859005  0.212218  0.952546  1
  O  O50  1  0.375460  0.705187  0.946278  1
  O  O51  1  0.862375  0.932691  0.469942  1
  O  O52  1  0.876203  0.419865  0.802580  1
  O  O53  1  0.862528  0.705321  0.621439  1
  O  O54  1  0.387623  0.918870  0.795614  1
  O  O55  1  0.839925  0.705635  0.791399  1
  O  O56  1  0.876354  0.419789  0.958680  1
  O  O57  1  0.860848  0.930756  0.619945  1
  O  O58  1  0.424573  0.929397  0.952318  1
  O  O59  1  0.865754  0.704382  0.953269  1
  O  O60  1  0.860431  0.932804  0.804465  1
  O  O61  1  0.859711  0.929310  0.952354  1
  Ti  Ti62  1  0.113975  0.311682  0.213080  1
  Ti  Ti63  1  0.631128  0.063101  0.203878  1
  Ti  Ti64  1  0.621135  0.321542  0.038177  1
  Ti  Ti65  1  0.124553  0.812569  0.207100  1
  Ti  Ti66  1  0.136810  0.312700  0.536889  1
  Ti  Ti67  1  0.623445  0.311626  0.213138  1
  Ti  Ti68  1  0.622086  0.558610  0.212876  1
  Ti  Ti69  1  0.626699  0.066227  0.538007  1
  Ti  Ti70  1  0.621758  0.817262  0.040637  1
  Ti  Ti71  1  0.123449  0.813892  0.542271  1
  Ti  Ti72  1  0.111651  0.317895  0.875590  1
  Ti  Ti73  1  0.629085  0.812548  0.207105  1
  Ti  Ti74  1  0.627105  0.312719  0.536829  1
  Ti  Ti75  1  0.621658  0.561980  0.544206  1
  Ti  Ti76  1  0.625042  0.059830  0.876766  1
  Ti  Ti77  1  0.628413  0.308846  0.708523  1
  Ti  Ti78  1  0.625632  0.812255  0.374730  1
  Ti  Ti79  1  0.133489  0.807068  0.876111  1
  Ti  Ti80  1  0.621906  0.813909  0.542259  1
  Ti  Ti81  1  0.625802  0.317823  0.875619  1
  Ti  Ti82  1  0.627099  0.803769  0.712811  1
  Ti  Ti83  1  0.624037  0.807085  0.876138  1
