# generated using pymatgen
data_LiTi6O12
_symmetry_space_group_name_H-M   'P 1'
_cell_length_a   4.93399891
_cell_length_b   14.24322392
_cell_length_c   5.94244407
_cell_angle_alpha   90.00000000
_cell_angle_beta   90.00000000
_cell_angle_gamma   87.90258735
_symmetry_Int_Tables_number   1
_chemical_formula_structural   LiTi6O12
_chemical_formula_sum   'Li2 Ti12 O24'
_cell_volume   417.33172473
_cell_formula_units_Z   2
loop_
 _symmetry_equiv_pos_site_id
 _symmetry_equiv_pos_as_xyz
  1  'x, y, z'
loop_
 _atom_site_type_symbol
 _atom_site_label
 _atom_site_symmetry_multiplicity
 _atom_site_fract_x
 _atom_site_fract_y
 _atom_site_fract_z
 _atom_site_occupancy
  Li  Li1  1  0.068354  0.780960  0.000229  1
  Li  Li2  1  0.068354  0.280960  0.249771  1
  Ti  Ti3  1  0.526117  0.845538  0.253878  1
  Ti  Ti4  1  0.525072  0.846223  0.746265  1
  Ti  Ti5  1  0.525072  0.346223  0.503735  1
  Ti  Ti6  1  0.526117  0.345538  0.996122  1
  Ti  Ti7  1  0.460836  0.659996  0.500413  1
  Ti  Ti8  1  0.498854  0.649255  0.998961  1
  Ti  Ti9  1  0.498854  0.149255  0.251039  1
  Ti  Ti10  1  0.460836  0.159996  0.749587  1
  Ti  Ti11  1  0.001521  0.503474  0.250304  1
  Ti  Ti12  1  0.999563  0.499390  0.749441  1
  Ti  Ti13  1  0.999563  0.999390  0.500559  1
  Ti  Ti14  1  0.001521  0.003474  0.999696  1
  O  O15  1  0.816953  0.933006  0.752631  1
  O  O16  1  0.814986  0.933988  0.247239  1
  O  O17  1  0.816953  0.433006  0.497369  1
  O  O18  1  0.814986  0.433988  0.002761  1
  O  O19  1  0.690778  0.774709  0.500178  1
  O  O20  1  0.699111  0.773086  0.999840  1
  O  O21  1  0.689036  0.597102  0.255068  1
  O  O22  1  0.689294  0.596833  0.744999  1
  O  O23  1  0.690778  0.274709  0.749822  1
  O  O24  1  0.699111  0.273086  0.250160  1
  O  O25  1  0.689294  0.096833  0.505001  1
  O  O26  1  0.689036  0.097102  0.994932  1
  O  O27  1  0.312230  0.904431  0.499580  1
  O  O28  1  0.295270  0.897144  0.000151  1
  O  O29  1  0.300310  0.726549  0.242848  1
  O  O30  1  0.300048  0.726581  0.757436  1
  O  O31  1  0.295270  0.397144  0.249849  1
  O  O32  1  0.312230  0.404431  0.750420  1
  O  O33  1  0.300048  0.226581  0.492564  1
  O  O34  1  0.300310  0.226549  0.007152  1
  O  O35  1  0.185314  0.565465  0.500159  1
  O  O36  1  0.187353  0.565870  0.000105  1
  O  O37  1  0.187353  0.065870  0.249895  1
  O  O38  1  0.185314  0.065466  0.749841  1
