# generated using pymatgen
data_LiTi2O4
_symmetry_space_group_name_H-M   'P 1'
_cell_length_a   5.94509921
_cell_length_b   5.94509971
_cell_length_c   5.94860412
_cell_angle_alpha   119.33236413
_cell_angle_beta   120.86620338
_cell_angle_gamma   89.79939604
_symmetry_Int_Tables_number   1
_chemical_formula_structural   LiTi2O4
_chemical_formula_sum   'Li2 Ti4 O8'
_cell_volume   148.45481550
_cell_formula_units_Z   2
loop_
 _symmetry_equiv_pos_site_id
 _symmetry_equiv_pos_as_xyz
  1  'x, y, z'
loop_
 _atom_site_type_symbol
 _atom_site_label
 _atom_site_symmetry_multiplicity
 _atom_site_fract_x
 _atom_site_fract_y
 _atom_site_fract_z
 _atom_site_occupancy
  Li  Li1  1  0.000000  0.500001  0.000001  1
  Li  Li2  1  0.000001  0.000000  0.500000  1
  Ti  Ti3  1  0.381438  0.631438  0.750000  1
  Ti  Ti4  1  0.618562  0.368563  0.250000  1
  Ti  Ti5  1  0.500001  0.000000  0.500000  1
  Ti  Ti6  1  0.000000  0.000000  0.000000  1
  O  O7  1  0.749071  0.755476  0.507084  1
  O  O8  1  0.748393  0.241988  0.992918  1
  O  O9  1  0.238969  0.236107  0.002857  1
  O  O10  1  0.250929  0.244524  0.492917  1
  O  O11  1  0.266750  0.763888  0.502856  1
  O  O12  1  0.251607  0.758013  0.007084  1
  O  O13  1  0.733249  0.236111  0.497143  1
  O  O14  1  0.761031  0.763894  0.997143  1
