# generated using pymatgen
data_LiTiO2
_symmetry_space_group_name_H-M   'P 1'
_cell_length_a   5.77138397
_cell_length_b   7.72459079
_cell_length_c   5.13414202
_cell_angle_alpha   28.99828992
_cell_angle_beta   55.80167186
_cell_angle_gamma   41.65638992
_symmetry_Int_Tables_number   1
_chemical_formula_structural   LiTiO2
_chemical_formula_sum   'Li2 Ti2 O4'
_cell_volume   70.72106808
_cell_formula_units_Z   2
loop_
 _symmetry_equiv_pos_site_id
 _symmetry_equiv_pos_as_xyz
  1  'x, y, z'
loop_
 _atom_site_type_symbol
 _atom_site_label
 _atom_site_symmetry_multiplicity
 _atom_site_fract_x
 _atom_site_fract_y
 _atom_site_fract_z
 _atom_site_occupancy
  Li  Li1  1  0.750000  0.000000  0.500000  1
  Li  Li2  1  0.500000  0.500000  0.500000  1
  O  O3  1  0.000865  0.999997  0.998275  1
  O  O4  1  0.249135  0.500003  0.001725  1
  O  O5  1  0.750866  0.499997  0.998275  1
  O  O6  1  0.499134  0.000003  0.001725  1
  Ti  Ti7  1  0.249999  0.000000  0.500000  1
  Ti  Ti8  1  0.000001  0.500000  0.500000  1
