# generated using pymatgen
data_Li6Ti9O20
_symmetry_space_group_name_H-M   'P 1'
_cell_length_a   5.97523931
_cell_length_b   5.97252703
_cell_length_c   24.70190724
_cell_angle_alpha   97.01538486
_cell_angle_beta   83.01765933
_cell_angle_gamma   119.98808396
_symmetry_Int_Tables_number   1
_chemical_formula_structural   Li6Ti9O20
_chemical_formula_sum   'Li12 Ti18 O40'
_cell_volume   755.93458922
_cell_formula_units_Z   2
loop_
 _symmetry_equiv_pos_site_id
 _symmetry_equiv_pos_as_xyz
  1  'x, y, z'
loop_
 _atom_site_type_symbol
 _atom_site_label
 _atom_site_symmetry_multiplicity
 _atom_site_fract_x
 _atom_site_fract_y
 _atom_site_fract_z
 _atom_site_occupancy
  Li  Li1  1  0.995577  0.991979  0.999118  1
  Li  Li2  1  0.251779  0.750050  0.251074  1
  Li  Li3  1  0.655159  0.358900  0.047387  1
  Li  Li4  1  0.199178  0.799918  0.398400  1
  Li  Li5  1  0.595169  0.395878  0.199780  1
  Li  Li6  1  0.523834  0.476229  0.424687  1
  Li  Li7  1  0.849024  0.150767  0.450819  1
  Li  Li8  1  0.448144  0.545814  0.649858  1
  Li  Li9  1  0.052871  0.953347  0.850987  1
  Li  Li10  1  0.795085  0.196759  0.598224  1
  Li  Li11  1  0.393868  0.594882  0.803637  1
  Li  Li12  1  0.522045  0.976179  0.925207  1
  Ti  Ti13  1  0.119860  0.869807  0.125720  1
  Ti  Ti14  1  0.337494  0.695911  0.021025  1
  Ti  Ti15  1  0.127028  0.375954  0.123816  1
  Ti  Ti16  1  0.623172  0.874645  0.125599  1
  Ti  Ti17  1  0.717477  0.768922  0.327228  1
  Ti  Ti18  1  0.230617  0.276331  0.327226  1
  Ti  Ti19  1  0.326999  0.670298  0.522485  1
  Ti  Ti20  1  0.121652  0.869645  0.623331  1
  Ti  Ti21  1  0.925921  0.078411  0.226489  1
  Ti  Ti22  1  0.723130  0.282233  0.327265  1
  Ti  Ti23  1  0.817545  0.672253  0.522291  1
  Ti  Ti24  1  0.328611  0.181125  0.522090  1
  Ti  Ti25  1  0.032471  0.475524  0.924530  1
  Ti  Ti26  1  0.923147  0.571469  0.725570  1
  Ti  Ti27  1  0.425396  0.076389  0.724774  1
  Ti  Ti28  1  0.925747  0.075535  0.724536  1
  Ti  Ti29  1  0.714983  0.256088  0.829439  1
  Ti  Ti30  1  0.529257  0.472471  0.926205  1
  O  O31  1  0.008253  0.543224  0.079035  1
  O  O32  1  0.456899  0.993648  0.077905  1
  O  O33  1  0.057236  0.946648  0.276673  1
  O  O34  1  0.455757  0.544414  0.078829  1
  O  O35  1  0.276403  0.723019  0.168121  1
  O  O36  1  0.240195  0.207135  0.172715  1
  O  O37  1  0.791366  0.757644  0.172959  1
  O  O38  1  0.612069  0.944285  0.276909  1
  O  O39  1  0.055345  0.389527  0.277191  1
  O  O40  1  0.389730  0.611294  0.367696  1
  O  O41  1  0.971573  0.026738  0.083157  1
  O  O42  1  0.572630  0.427823  0.282048  1
  O  O43  1  0.792902  0.207028  0.172614  1
  O  O44  1  0.171132  0.827415  0.481748  1
  O  O45  1  0.853836  0.612385  0.367409  1
  O  O46  1  0.389908  0.146430  0.367325  1
  O  O47  1  0.195623  0.339385  0.481772  1
  O  O48  1  0.660504  0.805810  0.482407  1
  O  O49  1  0.255080  0.740434  0.677121  1
  O  O50  1  0.659047  0.338999  0.481936  1
  O  O51  1  0.475401  0.521683  0.567463  1
  O  O52  1  0.878131  0.124021  0.367647  1
  O  O53  1  0.077142  0.921000  0.766848  1
  O  O54  1  0.992707  0.559190  0.572500  1
  O  O55  1  0.435672  0.003911  0.572669  1
  O  O56  1  0.591910  0.956516  0.772608  1
  O  O57  1  0.040231  0.405034  0.771051  1
  O  O58  1  0.807597  0.741046  0.677057  1
  O  O59  1  0.256111  0.189006  0.677118  1
  O  O60  1  0.771263  0.224104  0.681720  1
  O  O61  1  0.358503  0.606871  0.884381  1
  O  O62  1  0.177093  0.791614  0.976098  1
  O  O63  1  0.592646  0.404922  0.770748  1
  O  O64  1  0.992688  0.003476  0.572684  1
  O  O65  1  0.638456  0.791776  0.976003  1
  O  O66  1  0.189943  0.354681  0.973571  1
  O  O67  1  0.858886  0.593991  0.876787  1
  O  O68  1  0.412355  0.160007  0.874423  1
  O  O69  1  0.873226  0.157836  0.874490  1
  O  O70  1  0.686185  0.344308  0.966457  1
