# generated using pymatgen
data_Li5TlO4
_symmetry_space_group_name_H-M   'P 1'
_cell_length_a   4.79053768
_cell_length_b   13.42135656
_cell_length_c   13.42135656
_cell_angle_alpha   90.00000000
_cell_angle_beta   90.00000000
_cell_angle_gamma   90.00000000
_symmetry_Int_Tables_number   1
_chemical_formula_structural   Li5TlO4
_chemical_formula_sum   'Li40 Tl8 O32'
_cell_volume   862.93302286
_cell_formula_units_Z   8
loop_
 _symmetry_equiv_pos_site_id
 _symmetry_equiv_pos_as_xyz
  1  'x, y, z'
loop_
 _atom_site_type_symbol
 _atom_site_label
 _atom_site_symmetry_multiplicity
 _atom_site_fract_x
 _atom_site_fract_y
 _atom_site_fract_z
 _atom_site_occupancy
  Li  Li1  1  0.750000  0.879455  0.120545  1
  Li  Li2  1  0.250000  0.379455  0.879455  1
  Li  Li3  1  0.250000  0.120545  0.620545  1
  Li  Li4  1  0.750000  0.620545  0.379455  1
  Li  Li5  1  0.250000  0.120545  0.879455  1
  Li  Li6  1  0.750000  0.620545  0.120545  1
  Li  Li7  1  0.750000  0.879455  0.379455  1
  Li  Li8  1  0.250000  0.379455  0.620545  1
  Li  Li9  1  0.813456  0.110047  0.141465  1
  Li  Li10  1  0.813456  0.389953  0.358535  1
  Li  Li11  1  0.313456  0.141465  0.389953  1
  Li  Li12  1  0.313456  0.358535  0.110047  1
  Li  Li13  1  0.686544  0.641465  0.610047  1
  Li  Li14  1  0.186544  0.889953  0.641465  1
  Li  Li15  1  0.186544  0.610047  0.858535  1
  Li  Li16  1  0.686544  0.858535  0.889953  1
  Li  Li17  1  0.186544  0.889953  0.858535  1
  Li  Li18  1  0.186544  0.610047  0.641465  1
  Li  Li19  1  0.686544  0.858535  0.610047  1
  Li  Li20  1  0.250000  0.988464  0.011536  1
  Li  Li21  1  0.313456  0.358535  0.389953  1
  Li  Li22  1  0.813456  0.110047  0.358535  1
  Li  Li23  1  0.813456  0.389953  0.141465  1
  Li  Li24  1  0.313456  0.141465  0.110047  1
  Li  Li25  1  0.750000  0.250000  0.750000  1
  Li  Li26  1  0.250000  0.750000  0.250000  1
  Li  Li27  1  0.250000  0.250000  0.750000  1
  Li  Li28  1  0.750000  0.750000  0.250000  1
  Li  Li29  1  0.155970  0.750000  0.750000  1
  Li  Li30  1  0.655970  0.750000  0.750000  1
  Li  Li31  1  0.844030  0.250000  0.250000  1
  Li  Li32  1  0.344030  0.250000  0.250000  1
  Li  Li33  1  0.750000  0.488464  0.511536  1
  Li  Li34  1  0.250000  0.988464  0.488464  1
  Li  Li35  1  0.250000  0.511536  0.011536  1
  Li  Li36  1  0.750000  0.011536  0.988464  1
  Li  Li37  1  0.250000  0.511536  0.488464  1
  Li  Li38  1  0.750000  0.011536  0.511536  1
  Li  Li39  1  0.750000  0.488464  0.988464  1
  Li  Li40  1  0.686544  0.641465  0.889953  1
  O  O41  1  0.971889  0.614590  0.510046  1
  O  O42  1  0.971889  0.885410  0.989954  1
  O  O43  1  0.471889  0.510046  0.885410  1
  O  O44  1  0.471889  0.989954  0.614590  1
  O  O45  1  0.528111  0.010046  0.114590  1
  O  O46  1  0.028111  0.385410  0.010046  1
  O  O47  1  0.028111  0.114590  0.489954  1
  O  O48  1  0.528111  0.489954  0.385410  1
  O  O49  1  0.028111  0.385410  0.489954  1
  O  O50  1  0.028111  0.114590  0.010046  1
  O  O51  1  0.528111  0.489954  0.114590  1
  O  O52  1  0.528111  0.010046  0.385410  1
  O  O53  1  0.471889  0.989954  0.885410  1
  O  O54  1  0.971889  0.614590  0.989954  1
  O  O55  1  0.971889  0.885410  0.510046  1
  O  O56  1  0.471889  0.510046  0.614590  1
  O  O57  1  0.522953  0.750000  0.364528  1
  O  O58  1  0.522953  0.750000  0.135472  1
  O  O59  1  0.022953  0.364528  0.750000  1
  O  O60  1  0.022953  0.135472  0.750000  1
  O  O61  1  0.087218  0.133938  0.250000  1
  O  O62  1  0.477047  0.250000  0.864528  1
  O  O63  1  0.477047  0.250000  0.635472  1
  O  O64  1  0.977047  0.635472  0.250000  1
  O  O65  1  0.412782  0.750000  0.866062  1
  O  O66  1  0.412782  0.750000  0.633938  1
  O  O67  1  0.912782  0.866062  0.750000  1
  O  O68  1  0.912782  0.633938  0.750000  1
  O  O69  1  0.087218  0.366062  0.250000  1
  O  O70  1  0.587218  0.250000  0.366062  1
  O  O71  1  0.587218  0.250000  0.133938  1
  O  O72  1  0.977047  0.864528  0.250000  1
  Tl  Tl73  1  0.213148  0.750000  0.477537  1
  Tl  Tl74  1  0.213148  0.750000  0.022463  1
  Tl  Tl75  1  0.713148  0.477537  0.750000  1
  Tl  Tl76  1  0.713148  0.022463  0.750000  1
  Tl  Tl77  1  0.286852  0.977537  0.250000  1
  Tl  Tl78  1  0.786852  0.250000  0.977537  1
  Tl  Tl79  1  0.786852  0.250000  0.522463  1
  Tl  Tl80  1  0.286852  0.522463  0.250000  1
