# generated using pymatgen
data_LiTmO2
_symmetry_space_group_name_H-M   'P 1'
_cell_length_a   4.39721636
_cell_length_b   5.98978145
_cell_length_c   4.39721636
_cell_angle_alpha   68.46559140
_cell_angle_beta   90.00000000
_cell_angle_gamma   111.53440860
_symmetry_Int_Tables_number   1
_chemical_formula_structural   LiTmO2
_chemical_formula_sum   'Li2 Tm2 O4'
_cell_volume   98.98898559
_cell_formula_units_Z   2
loop_
 _symmetry_equiv_pos_site_id
 _symmetry_equiv_pos_as_xyz
  1  'x, y, z'
loop_
 _atom_site_type_symbol
 _atom_site_label
 _atom_site_symmetry_multiplicity
 _atom_site_fract_x
 _atom_site_fract_y
 _atom_site_fract_z
 _atom_site_occupancy
  Li  Li1  1  0.250000  0.500000  0.250000  1
  Li  Li2  1  0.500000  0.000000  0.500000  1
  Tm  Tm3  1  0.000000  0.000000  0.000000  1
  Tm  Tm4  1  0.750000  0.500000  0.750000  1
  O  O5  1  0.777674  0.555348  0.222326  1
  O  O6  1  0.222326  0.444652  0.777674  1
  O  O7  1  0.527674  0.055348  0.972326  1
  O  O8  1  0.972326  0.944652  0.527674  1
