# generated using pymatgen
data_Li2UO4
_symmetry_space_group_name_H-M   'P 1'
_cell_length_a   4.35764154
_cell_length_b   4.35764154
_cell_length_c   6.11758684
_cell_angle_alpha   110.85213900
_cell_angle_beta   110.85213896
_cell_angle_gamma   90.03207739
_symmetry_Int_Tables_number   1
_chemical_formula_structural   Li2UO4
_chemical_formula_sum   'Li2 U1 O4'
_cell_volume   100.36503484
_cell_formula_units_Z   1
loop_
 _symmetry_equiv_pos_site_id
 _symmetry_equiv_pos_as_xyz
  1  'x, y, z'
loop_
 _atom_site_type_symbol
 _atom_site_label
 _atom_site_symmetry_multiplicity
 _atom_site_fract_x
 _atom_site_fract_y
 _atom_site_fract_z
 _atom_site_occupancy
  Li  Li1  1  0.642608  0.642608  0.285217  1
  Li  Li2  1  0.357392  0.357392  0.714783  1
  O  O3  1  0.000000  0.500000  0.000000  1
  O  O4  1  0.181098  0.181098  0.362196  1
  O  O5  1  0.818902  0.818902  0.637804  1
  O  O6  1  0.500000  0.000000  0.000000  1
  U  U7  1  0.000000  0.000000  0.000000  1
