# generated using pymatgen
data_Li(CoO2)2
_symmetry_space_group_name_H-M   'P 1'
_cell_length_a   5.64438328
_cell_length_b   5.69351241
_cell_length_c   9.11001749
_cell_angle_alpha   90.03641547
_cell_angle_beta   89.98163409
_cell_angle_gamma   120.28835014
_symmetry_Int_Tables_number   1
_chemical_formula_structural   Li(CoO2)2
_chemical_formula_sum   'Li4 Co8 O16'
_cell_volume   252.80012672
_cell_formula_units_Z   4
loop_
 _symmetry_equiv_pos_site_id
 _symmetry_equiv_pos_as_xyz
  1  'x, y, z'
loop_
 _atom_site_type_symbol
 _atom_site_label
 _atom_site_symmetry_multiplicity
 _atom_site_fract_x
 _atom_site_fract_y
 _atom_site_fract_z
 _atom_site_occupancy
  Li  Li1  1  0.337260  0.668395  0.894099  1
  Li  Li2  1  0.997143  0.999373  0.998301  1
  Li  Li3  1  0.002857  0.002230  0.498301  1
  Li  Li4  1  0.662740  0.331136  0.394099  1
  Co  Co5  1  0.166603  0.829132  0.210583  1
  Co  Co6  1  0.327717  0.663841  0.482905  1
  Co  Co7  1  0.166756  0.337227  0.210503  1
  Co  Co8  1  0.657419  0.828700  0.214498  1
  Co  Co9  1  0.342581  0.171280  0.714498  1
  Co  Co10  1  0.672283  0.336123  0.982905  1
  Co  Co11  1  0.833397  0.662529  0.710583  1
  Co  Co12  1  0.833244  0.170470  0.710503  1
  O  O13  1  0.159080  0.829321  0.603147  1
  O  O14  1  0.041189  0.520431  0.337627  1
  O  O15  1  0.330554  0.665038  0.106377  1
  O  O16  1  0.000388  0.000207  0.308662  1
  O  O17  1  0.999612  0.999820  0.808662  1
  O  O18  1  0.159613  0.330471  0.603527  1
  O  O19  1  0.473994  0.956428  0.339964  1
  O  O20  1  0.474276  0.517598  0.339670  1
  O  O21  1  0.331059  0.165512  0.104056  1
  O  O22  1  0.668941  0.834454  0.604056  1
  O  O23  1  0.526006  0.482434  0.839964  1
  O  O24  1  0.525724  0.043323  0.839670  1
  O  O25  1  0.669446  0.334485  0.606377  1
  O  O26  1  0.840920  0.670241  0.103147  1
  O  O27  1  0.958811  0.479243  0.837627  1
  O  O28  1  0.840387  0.170859  0.103527  1
