# generated using pymatgen
data_LiUO3
_symmetry_space_group_name_H-M   'P 1'
_cell_length_a   5.93316308
_cell_length_b   5.93316308
_cell_length_c   5.93316309
_cell_angle_alpha   55.01501340
_cell_angle_beta   55.01501340
_cell_angle_gamma   55.01501341
_symmetry_Int_Tables_number   1
_chemical_formula_structural   LiUO3
_chemical_formula_sum   'Li2 U2 O6'
_cell_volume   130.55896086
_cell_formula_units_Z   2
loop_
 _symmetry_equiv_pos_site_id
 _symmetry_equiv_pos_as_xyz
  1  'x, y, z'
loop_
 _atom_site_type_symbol
 _atom_site_label
 _atom_site_symmetry_multiplicity
 _atom_site_fract_x
 _atom_site_fract_y
 _atom_site_fract_z
 _atom_site_occupancy
  Li  Li1  1  0.465123  0.465123  0.465123  1
  Li  Li2  1  0.965123  0.965123  0.965123  1
  O  O3  1  0.129239  0.844760  0.502675  1
  O  O4  1  0.344760  0.629239  0.002675  1
  O  O5  1  0.629239  0.002675  0.344760  1
  O  O6  1  0.002675  0.344760  0.629239  1
  O  O7  1  0.502675  0.129239  0.844760  1
  O  O8  1  0.844760  0.502675  0.129239  1
  U  U9  1  0.238203  0.238203  0.238203  1
  U  U10  1  0.738203  0.738203  0.738203  1
