# generated using pymatgen
data_LiUO3
_symmetry_space_group_name_H-M   'P 1'
_cell_length_a   4.27626157
_cell_length_b   4.27626911
_cell_length_c   4.27626156
_cell_angle_alpha   89.66627606
_cell_angle_beta   89.70947481
_cell_angle_gamma   89.66628188
_symmetry_Int_Tables_number   1
_chemical_formula_structural   LiUO3
_chemical_formula_sum   'Li1 U1 O3'
_cell_volume   78.19397801
_cell_formula_units_Z   1
loop_
 _symmetry_equiv_pos_site_id
 _symmetry_equiv_pos_as_xyz
  1  'x, y, z'
loop_
 _atom_site_type_symbol
 _atom_site_label
 _atom_site_symmetry_multiplicity
 _atom_site_fract_x
 _atom_site_fract_y
 _atom_site_fract_z
 _atom_site_occupancy
  Li  Li1  1  0.000000  0.000000  0.000000  1
  O  O2  1  0.500000  0.500000  0.000000  1
  O  O3  1  0.000000  0.500000  0.500000  1
  U  U4  1  0.500000  0.500000  0.500000  1
  O  O5  1  0.500000  0.000000  0.500000  1
