# generated using pymatgen
data_Li6UO6
_symmetry_space_group_name_H-M   'P 1'
_cell_length_a   5.48607204
_cell_length_b   5.48607205
_cell_length_c   5.48607204
_cell_angle_alpha   101.03443934
_cell_angle_beta   101.03443927
_cell_angle_gamma   101.03443926
_symmetry_Int_Tables_number   1
_chemical_formula_structural   Li6UO6
_chemical_formula_sum   'Li6 U1 O6'
_cell_volume   154.54516223
_cell_formula_units_Z   1
loop_
 _symmetry_equiv_pos_site_id
 _symmetry_equiv_pos_as_xyz
  1  'x, y, z'
loop_
 _atom_site_type_symbol
 _atom_site_label
 _atom_site_symmetry_multiplicity
 _atom_site_fract_x
 _atom_site_fract_y
 _atom_site_fract_z
 _atom_site_occupancy
  Li  Li1  1  0.644448  0.352989  0.002836  1
  Li  Li2  1  0.355552  0.647011  0.997164  1
  Li  Li3  1  0.647011  0.997164  0.355552  1
  Li  Li4  1  0.997164  0.355552  0.647011  1
  Li  Li5  1  0.352989  0.002836  0.644448  1
  Li  Li6  1  0.002836  0.644448  0.352989  1
  O  O7  1  0.100361  0.732633  0.730033  1
  O  O8  1  0.899639  0.267367  0.269967  1
  O  O9  1  0.267367  0.269967  0.899639  1
  O  O10  1  0.269967  0.899639  0.267367  1
  O  O11  1  0.732633  0.730033  0.100361  1
  O  O12  1  0.730033  0.100361  0.732633  1
  U  U13  1  0.000000  0.000000  0.000000  1
