# generated using pymatgen
data_LiVO2
_symmetry_space_group_name_H-M   'P 1'
_cell_length_a   5.84071330
_cell_length_b   12.01317432
_cell_length_c   10.49409799
_cell_angle_alpha   29.12663165
_cell_angle_beta   56.17878775
_cell_angle_gamma   60.90770526
_symmetry_Int_Tables_number   1
_chemical_formula_structural   LiVO2
_chemical_formula_sum   'Li8 V8 O16'
_cell_volume   297.75040154
_cell_formula_units_Z   8
loop_
 _symmetry_equiv_pos_site_id
 _symmetry_equiv_pos_as_xyz
  1  'x, y, z'
loop_
 _atom_site_type_symbol
 _atom_site_label
 _atom_site_symmetry_multiplicity
 _atom_site_fract_x
 _atom_site_fract_y
 _atom_site_fract_z
 _atom_site_occupancy
  Li  Li1  1  0.127428  0.253308  0.120817  1
  Li  Li2  1  0.125001  0.499983  0.125017  1
  Li  Li3  1  0.122569  0.253308  0.622570  1
  Li  Li4  1  0.125000  0.499987  0.625013  1
  Li  Li5  1  0.625702  0.746698  0.129170  1
  Li  Li6  1  0.625001  0.500001  0.624999  1
  Li  Li7  1  0.624305  0.746698  0.627429  1
  Li  Li8  1  0.625001  0.000000  0.625000  1
  V  V9  1  0.124999  -0.000009  0.125011  1
  V  V10  1  0.625000  0.999954  0.125045  1
  V  V11  1  0.119070  0.739891  0.135900  1
  V  V12  1  0.620581  0.260125  0.114102  1
  V  V13  1  0.625000  0.500020  0.124982  1
  V  V14  1  0.130920  0.739885  0.634328  1
  V  V15  1  0.629417  0.260120  0.615653  1
  V  V16  1  0.125003  0.999946  0.625055  1
  O  O17  1  0.373669  0.999967  0.376300  1
  O  O18  1  0.388864  0.244639  0.364432  1
  O  O19  1  0.392940  0.500031  0.356993  1
  O  O20  1  0.891199  0.000041  0.358751  1
  O  O21  1  0.861138  0.244638  0.396295  1
  O  O22  1  0.390681  0.240582  0.872015  1
  O  O23  1  0.365904  0.759441  0.377911  1
  O  O24  1  0.377829  0.499987  0.872181  1
  O  O25  1  0.872172  0.499982  0.377849  1
  O  O26  1  0.884093  0.759443  0.353201  1
  O  O27  1  0.859317  0.240587  0.896815  1
  O  O28  1  0.357044  0.755355  0.885529  1
  O  O29  1  0.358803  0.000041  0.891166  1
  O  O30  1  0.857062  0.500032  0.892944  1
  O  O31  1  0.892956  0.755347  0.853767  1
  O  O32  1  0.876332  0.999973  0.873760  1
