# generated using pymatgen
data_KC
_symmetry_space_group_name_H-M   'P 1'
_cell_length_a   7.66554755
_cell_length_b   7.66554755
_cell_length_c   9.11647334
_cell_angle_alpha   114.86128717
_cell_angle_beta   114.86128716
_cell_angle_gamma   89.99999995
_symmetry_Int_Tables_number   1
_chemical_formula_structural   KC
_chemical_formula_sum   'K8 C8'
_cell_volume   430.71885223
_cell_formula_units_Z   8
loop_
 _symmetry_equiv_pos_site_id
 _symmetry_equiv_pos_as_xyz
  1  'x, y, z'
loop_
 _atom_site_type_symbol
 _atom_site_label
 _atom_site_symmetry_multiplicity
 _atom_site_fract_x
 _atom_site_fract_y
 _atom_site_fract_z
 _atom_site_occupancy
  C  C1  1  0.933479  0.683479  0.750000  1
  C  C2  1  0.566521  0.933479  0.250000  1
  C  C3  1  0.683479  0.816521  0.250000  1
  C  C4  1  0.816521  0.566521  0.750000  1
  C  C5  1  0.066521  0.316521  0.250000  1
  C  C6  1  0.433479  0.066521  0.750000  1
  C  C7  1  0.316521  0.183479  0.750000  1
  C  C8  1  0.183479  0.433479  0.250000  1
  K  K9  1  0.941759  0.250000  0.500000  1
  K  K10  1  0.750000  0.941759  0.000000  1
  K  K11  1  0.250000  0.558241  0.000000  1
  K  K12  1  0.558241  0.750000  0.500000  1
  K  K13  1  0.058241  0.750000  0.500000  1
  K  K14  1  0.250000  0.058241  0.000000  1
  K  K15  1  0.750000  0.441759  0.000000  1
  K  K16  1  0.441759  0.250000  0.500000  1
