# generated using pymatgen
data_Li7V5O12
_symmetry_space_group_name_H-M   'P 1'
_cell_length_a   9.88032824
_cell_length_b   5.15655396
_cell_length_c   19.59128406
_cell_angle_alpha   92.26405752
_cell_angle_beta   15.06936379
_cell_angle_gamma   84.54430610
_symmetry_Int_Tables_number   1
_chemical_formula_structural   Li7V5O12
_chemical_formula_sum   'Li7 V5 O12'
_cell_volume   222.61142523
_cell_formula_units_Z   1
loop_
 _symmetry_equiv_pos_site_id
 _symmetry_equiv_pos_as_xyz
  1  'x, y, z'
loop_
 _atom_site_type_symbol
 _atom_site_label
 _atom_site_symmetry_multiplicity
 _atom_site_fract_x
 _atom_site_fract_y
 _atom_site_fract_z
 _atom_site_occupancy
  Li  Li1  1  0.198024  0.821247  0.149742  1
  Li  Li2  1  0.679172  0.815773  0.663303  1
  Li  Li3  1  0.496081  0.492171  0.500574  1
  Li  Li4  1  0.763922  0.492439  0.743487  1
  Li  Li5  1  0.327229  0.167597  0.338619  1
  Li  Li6  1  0.028356  0.494253  0.988158  1
  Li  Li7  1  0.848125  0.171248  0.824240  1
  V  V8  1  0.257654  0.497544  0.246641  1
  V  V9  1  0.924989  0.831151  0.913050  1
  V  V10  1  0.590872  0.163746  0.580188  1
  V  V11  1  0.438331  0.829904  0.406595  1
  V  V12  1  0.089411  0.155652  0.080646  1
  O  O13  1  0.543782  0.832501  0.546161  1
  O  O14  1  0.306374  0.825852  0.279619  1
  O  O15  1  0.014684  0.847386  0.061778  1
  O  O16  1  0.774454  0.860305  0.794258  1
  O  O17  1  0.068385  0.506333  0.147289  1
  O  O18  1  0.634512  0.494804  0.617516  1
  O  O19  1  0.458047  0.479876  0.340628  1
  O  O20  1  0.209442  0.168821  0.213559  1
  O  O21  1  0.882503  0.499554  0.875105  1
  O  O22  1  0.511641  0.138866  0.426102  1
  O  O23  1  0.971632  0.162522  0.947259  1
  O  O24  1  0.751980  0.125752  0.693619  1
