# generated using pymatgen
data_Li21(CoO4)4
_symmetry_space_group_name_H-M   'P 1'
_cell_length_a   9.08905265
_cell_length_b   9.43185011
_cell_length_c   9.37424577
_cell_angle_alpha   90.00000000
_cell_angle_beta   90.00000000
_cell_angle_gamma   90.19366594
_symmetry_Int_Tables_number   1
_chemical_formula_structural   Li21(CoO4)4
_chemical_formula_sum   'Li42 Co8 O32'
_cell_volume   803.61746021
_cell_formula_units_Z   2
loop_
 _symmetry_equiv_pos_site_id
 _symmetry_equiv_pos_as_xyz
  1  'x, y, z'
loop_
 _atom_site_type_symbol
 _atom_site_label
 _atom_site_symmetry_multiplicity
 _atom_site_fract_x
 _atom_site_fract_y
 _atom_site_fract_z
 _atom_site_occupancy
  Li  Li1  1  0.888140  0.635942  0.864065  1
  Li  Li2  1  0.882737  0.864943  0.641216  1
  Li  Li3  1  0.888140  0.135942  0.635935  1
  Li  Li4  1  0.882737  0.364943  0.858784  1
  Li  Li5  1  0.879279  0.840146  0.108188  1
  Li  Li6  1  0.879279  0.340146  0.391812  1
  Li  Li7  1  0.847420  0.898184  0.377871  1
  Li  Li8  1  0.847420  0.398184  0.122129  1
  Li  Li9  1  0.672598  0.885119  0.886891  1
  Li  Li10  1  0.672598  0.385119  0.613109  1
  Li  Li11  1  0.655664  0.607433  0.131887  1
  Li  Li12  1  0.633089  0.880235  0.158613  1
  Li  Li13  1  0.655664  0.107433  0.368113  1
  Li  Li14  1  0.633089  0.380235  0.341387  1
  Li  Li15  1  0.612496  0.860968  0.616968  1
  Li  Li16  1  0.612496  0.360968  0.883032  1
  Li  Li17  1  0.648449  0.622271  0.604440  1
  Li  Li18  1  0.648449  0.122271  0.895560  1
  Li  Li19  1  0.604299  0.647388  0.369394  1
  Li  Li20  1  0.604299  0.147388  0.130606  1
  Li  Li21  1  0.393984  0.851024  0.864040  1
  Li  Li22  1  0.393984  0.351024  0.635960  1
  Li  Li23  1  0.386358  0.885040  0.104946  1
  Li  Li24  1  0.386358  0.385040  0.395054  1
  Li  Li25  1  0.371135  0.620437  0.646922  1
  Li  Li26  1  0.380427  0.638430  0.117029  1
  Li  Li27  1  0.371135  0.120437  0.853078  1
  Li  Li28  1  0.380427  0.138430  0.382971  1
  Li  Li29  1  0.337433  0.886751  0.620681  1
  Li  Li30  1  0.337433  0.386751  0.879319  1
  Li  Li31  1  0.331626  0.625294  0.381247  1
  Li  Li32  1  0.331626  0.125294  0.118753  1
  Li  Li33  1  0.161261  0.604911  0.885107  1
  Li  Li34  1  0.134936  0.892543  0.121364  1
  Li  Li35  1  0.161261  0.104911  0.614893  1
  Li  Li36  1  0.134936  0.392543  0.378636  1
  Li  Li37  1  0.119733  0.862737  0.377994  1
  Li  Li38  1  0.116099  0.625869  0.145045  1
  Li  Li39  1  0.119733  0.362737  0.122006  1
  Li  Li40  1  0.116099  0.125869  0.354955  1
  Li  Li41  1  0.101173  0.652141  0.615021  1
  Li  Li42  1  0.101173  0.152141  0.884979  1
  Co  Co43  1  0.888638  0.621473  0.369519  1
  Co  Co44  1  0.888638  0.121473  0.130481  1
  Co  Co45  1  0.606484  0.624558  0.868809  1
  Co  Co46  1  0.606484  0.124558  0.631191  1
  Co  Co47  1  0.397588  0.878948  0.368475  1
  Co  Co48  1  0.397588  0.378948  0.131525  1
  Co  Co49  1  0.110849  0.875715  0.853340  1
  Co  Co50  1  0.110849  0.375715  0.646660  1
  O  O51  1  0.990096  0.988383  0.239229  1
  O  O52  1  0.990096  0.488383  0.260771  1
  O  O53  1  0.974007  0.756104  0.483471  1
  O  O54  1  0.974007  0.256104  0.016529  1
  O  O55  1  0.744587  0.504427  0.464922  1
  O  O56  1  0.758086  0.742232  0.254311  1
  O  O57  1  0.744587  0.004427  0.035078  1
  O  O58  1  0.758086  0.242232  0.245689  1
  O  O59  1  0.741346  0.005679  0.531505  1
  O  O60  1  0.741346  0.505679  0.968495  1
  O  O61  1  0.729755  0.742620  0.752589  1
  O  O62  1  0.729755  0.242620  0.747411  1
  O  O63  1  0.527624  0.753705  0.001991  1
  O  O64  1  0.527624  0.253705  0.498009  1
  O  O65  1  0.517024  0.994940  0.755071  1
  O  O66  1  0.517024  0.494940  0.744929  1
  O  O67  1  0.491060  0.515156  0.260241  1
  O  O68  1  0.491060  0.015156  0.239759  1
  O  O69  1  0.478893  0.742667  0.509783  1
  O  O70  1  0.478893  0.242667  0.990217  1
  O  O71  1  0.261392  0.766479  0.236420  1
  O  O72  1  0.253463  0.986630  0.972932  1
  O  O73  1  0.254036  0.499094  0.029561  1
  O  O74  1  0.261392  0.266479  0.263580  1
  O  O75  1  0.244895  0.753311  0.750451  1
  O  O76  1  0.253463  0.486630  0.527068  1
  O  O77  1  0.254036  0.999095  0.470439  1
  O  O78  1  0.244895  0.253311  0.749549  1
  O  O79  1  0.029257  0.753310  0.986711  1
  O  O80  1  0.029257  0.253310  0.513289  1
  O  O81  1  0.020193  0.504477  0.757721  1
  O  O82  1  0.020193  0.004477  0.742279  1
