# generated using pymatgen
data_LiV3O8
_symmetry_space_group_name_H-M   'P 1'
_cell_length_a   6.83572559
_cell_length_b   3.64520321
_cell_length_c   12.25958002
_cell_angle_alpha   90.00000000
_cell_angle_beta   108.31342391
_cell_angle_gamma   90.00000000
_symmetry_Int_Tables_number   1
_chemical_formula_structural   LiV3O8
_chemical_formula_sum   'Li2 V6 O16'
_cell_volume   290.00746310
_cell_formula_units_Z   2
loop_
 _symmetry_equiv_pos_site_id
 _symmetry_equiv_pos_as_xyz
  1  'x, y, z'
loop_
 _atom_site_type_symbol
 _atom_site_label
 _atom_site_symmetry_multiplicity
 _atom_site_fract_x
 _atom_site_fract_y
 _atom_site_fract_z
 _atom_site_occupancy
  Li  Li1  1  0.499954  0.750000  0.319692  1
  Li  Li2  1  0.579552  0.250000  0.050718  1
  V  V3  1  0.063966  0.250000  0.798252  1
  V  V4  1  0.156415  0.750000  0.464704  1
  V  V5  1  0.197620  0.250000  0.077430  1
  V  V6  1  0.794919  0.750000  0.916684  1
  V  V7  1  0.844921  0.250000  0.536075  1
  V  V8  1  0.938825  0.750000  0.200443  1
  O  O9  1  0.011629  0.750000  0.827349  1
  O  O10  1  0.281269  0.250000  0.956086  1
  O  O11  1  0.065201  0.250000  0.459606  1
  O  O12  1  0.221398  0.250000  0.724342  1
  O  O13  1  0.194573  0.750000  0.323650  1
  O  O14  1  0.383163  0.750000  0.556397  1
  O  O15  1  0.120319  0.750000  0.076068  1
  O  O16  1  0.577975  0.750000  0.815997  1
  O  O17  1  0.423173  0.250000  0.182264  1
  O  O18  1  0.878369  0.250000  0.932650  1
  O  O19  1  0.616415  0.250000  0.436951  1
  O  O20  1  0.813200  0.250000  0.673658  1
  O  O21  1  0.778938  0.750000  0.276244  1
  O  O22  1  0.933448  0.750000  0.540384  1
  O  O23  1  0.715409  0.750000  0.048536  1
  O  O24  1  0.981050  0.250000  0.172790  1
