# generated using pymatgen
data_Li2V3O8
_symmetry_space_group_name_H-M   'P 1'
_cell_length_a   8.29164685
_cell_length_b   8.36600992
_cell_length_c   8.37547169
_cell_angle_alpha   89.98612979
_cell_angle_beta   89.99038079
_cell_angle_gamma   90.00441973
_symmetry_Int_Tables_number   1
_chemical_formula_structural   Li2V3O8
_chemical_formula_sum   'Li8 V12 O32'
_cell_volume   580.98969114
_cell_formula_units_Z   4
loop_
 _symmetry_equiv_pos_site_id
 _symmetry_equiv_pos_as_xyz
  1  'x, y, z'
loop_
 _atom_site_type_symbol
 _atom_site_label
 _atom_site_symmetry_multiplicity
 _atom_site_fract_x
 _atom_site_fract_y
 _atom_site_fract_z
 _atom_site_occupancy
  Li  Li1  1  0.998433  0.995952  0.999737  1
  Li  Li2  1  0.001402  0.496206  0.500791  1
  Li  Li3  1  0.253148  0.253355  0.249967  1
  Li  Li4  1  0.246222  0.746958  0.749926  1
  Li  Li5  1  0.501642  0.003711  0.499496  1
  Li  Li6  1  0.498699  0.503934  0.000181  1
  Li  Li7  1  0.753246  0.246657  0.750288  1
  Li  Li8  1  0.746276  0.753272  0.249752  1
  V  V9  1  0.123993  0.131664  0.626952  1
  V  V10  1  0.115200  0.626550  0.138172  1
  V  V11  1  0.108006  0.365234  0.883380  1
  V  V12  1  0.385754  0.371103  0.638500  1
  V  V13  1  0.391280  0.634689  0.384790  1
  V  V14  1  0.374239  0.867472  0.126336  1
  V  V15  1  0.607771  0.134489  0.116218  1
  V  V16  1  0.624578  0.368193  0.372976  1
  V  V17  1  0.614841  0.872548  0.862520  1
  V  V18  1  0.885537  0.128568  0.361202  1
  V  V19  1  0.875186  0.632857  0.873630  1
  V  V20  1  0.890716  0.865259  0.615347  1
  O  O21  1  0.143440  0.397801  0.093605  1
  O  O22  1  0.094832  0.135261  0.385015  1
  O  O23  1  0.134302  0.364954  0.640944  1
  O  O24  1  0.154581  0.851089  0.109496  1
  O  O25  1  0.116304  0.155159  0.864220  1
  O  O26  1  0.142336  0.607864  0.343450  1
  O  O27  1  0.101392  0.896346  0.636335  1
  O  O28  1  0.108460  0.614519  0.886724  1
  O  O29  1  0.397614  0.104668  0.135549  1
  O  O30  1  0.391502  0.385054  0.387324  1
  O  O31  1  0.345687  0.148990  0.611167  1
  O  O32  1  0.357799  0.392796  0.843286  1
  O  O33  1  0.365548  0.634516  0.140657  1
  O  O34  1  0.385277  0.844774  0.363313  1
  O  O35  1  0.356365  0.602547  0.593493  1
  O  O36  1  0.405715  0.863657  0.884389  1
  O  O37  1  0.634257  0.135006  0.359024  1
  O  O38  1  0.616332  0.344778  0.135950  1
  O  O39  1  0.594933  0.364778  0.615095  1
  O  O40  1  0.601750  0.603633  0.363683  1
  O  O41  1  0.643528  0.102281  0.906582  1
  O  O42  1  0.654770  0.648881  0.890279  1
  O  O43  1  0.608315  0.885633  0.112926  1
  O  O44  1  0.642606  0.892366  0.657022  1
  O  O45  1  0.857962  0.107309  0.156672  1
  O  O46  1  0.891512  0.115143  0.612762  1
  O  O47  1  0.845741  0.351087  0.388793  1
  O  O48  1  0.906173  0.636494  0.115570  1
  O  O49  1  0.884896  0.655262  0.636510  1
  O  O50  1  0.897969  0.395501  0.864118  1
  O  O51  1  0.856186  0.897651  0.406422  1
  O  O52  1  0.865746  0.865527  0.859461  1
