# generated using pymatgen
data_Li3V5O12
_symmetry_space_group_name_H-M   'P 1'
_cell_length_a   8.90402395
_cell_length_b   12.52573189
_cell_length_c   9.27413317
_cell_angle_alpha   90.00000000
_cell_angle_beta   90.00000000
_cell_angle_gamma   91.11566336
_symmetry_Int_Tables_number   1
_chemical_formula_structural   Li3V5O12
_chemical_formula_sum   'Li12 V20 O48'
_cell_volume   1034.14258063
_cell_formula_units_Z   4
loop_
 _symmetry_equiv_pos_site_id
 _symmetry_equiv_pos_as_xyz
  1  'x, y, z'
loop_
 _atom_site_type_symbol
 _atom_site_label
 _atom_site_symmetry_multiplicity
 _atom_site_fract_x
 _atom_site_fract_y
 _atom_site_fract_z
 _atom_site_occupancy
  Li  Li1  1  0.072505  0.697663  0.087456  1
  Li  Li2  1  0.064746  0.346827  0.511264  1
  Li  Li3  1  0.180081  0.181081  0.775813  1
  Li  Li4  1  0.319919  0.318919  0.275813  1
  Li  Li5  1  0.427495  0.802337  0.587456  1
  Li  Li6  1  0.435254  0.153173  0.011264  1
  Li  Li7  1  0.564746  0.846827  0.988736  1
  Li  Li8  1  0.572505  0.197663  0.412544  1
  Li  Li9  1  0.680081  0.681081  0.724187  1
  Li  Li10  1  0.819919  0.818919  0.224187  1
  Li  Li11  1  0.935254  0.653173  0.488736  1
  Li  Li12  1  0.927495  0.302337  0.912544  1
  V  V13  1  0.248803  0.890635  0.023590  1
  V  V14  1  0.251197  0.609365  0.523590  1
  V  V15  1  0.253797  0.381665  0.968804  1
  V  V16  1  0.246203  0.118335  0.468804  1
  V  V17  1  0.753797  0.881665  0.531196  1
  V  V18  1  0.746203  0.618335  0.031196  1
  V  V19  1  0.748803  0.390635  0.476410  1
  V  V20  1  0.751197  0.109365  0.976410  1
  V  V21  1  0.036360  0.489818  0.246844  1
  V  V22  1  0.114976  0.851282  0.381507  1
  V  V23  1  0.111050  0.141077  0.115445  1
  V  V24  1  0.385024  0.648718  0.881507  1
  V  V25  1  0.388950  0.358923  0.615445  1
  V  V26  1  0.463640  0.010182  0.746844  1
  V  V27  1  0.536360  0.989818  0.253156  1
  V  V28  1  0.611050  0.641077  0.384555  1
  V  V29  1  0.614976  0.351282  0.118493  1
  V  V30  1  0.888950  0.858923  0.884555  1
  V  V31  1  0.885024  0.148718  0.618493  1
  V  V32  1  0.963640  0.510182  0.753156  1
  O  O33  1  0.064242  0.438935  0.879932  1
  O  O34  1  0.069555  0.905087  0.889824  1
  O  O35  1  0.063634  0.607189  0.655801  1
  O  O36  1  0.072284  0.191820  0.576573  1
  O  O37  1  0.099564  0.590169  0.363639  1
  O  O38  1  0.123335  0.839058  0.191929  1
  O  O39  1  0.142398  0.981443  0.425649  1
  O  O40  1  0.125801  0.244001  0.986824  1
  O  O41  1  0.175578  0.187458  0.284269  1
  O  O42  1  0.190682  0.427653  0.168691  1
  O  O43  1  0.242759  0.771899  0.473788  1
  O  O44  1  0.257241  0.728101  0.973788  1
  O  O45  1  0.244375  0.050102  0.053774  1
  O  O46  1  0.255625  0.449898  0.553774  1
  O  O47  1  0.309318  0.072347  0.668691  1
  O  O48  1  0.324422  0.312542  0.784269  1
  O  O49  1  0.357602  0.518557  0.925649  1
  O  O50  1  0.374199  0.255999  0.486824  1
  O  O51  1  0.376665  0.660942  0.691929  1
  O  O52  1  0.400436  0.909831  0.863639  1
  O  O53  1  0.436366  0.892811  0.155801  1
  O  O54  1  0.430445  0.594913  0.389824  1
  O  O55  1  0.427716  0.308180  0.076573  1
  O  O56  1  0.435758  0.061065  0.379932  1
  O  O57  1  0.564242  0.938935  0.620068  1
  O  O58  1  0.572284  0.691820  0.923427  1
  O  O59  1  0.569555  0.405087  0.610176  1
  O  O60  1  0.563634  0.107189  0.844199  1
  O  O61  1  0.599564  0.090169  0.136361  1
  O  O62  1  0.623335  0.339058  0.308071  1
  O  O63  1  0.625801  0.744001  0.513176  1
  O  O64  1  0.642398  0.481443  0.074351  1
  O  O65  1  0.675578  0.687458  0.215731  1
  O  O66  1  0.690682  0.927653  0.331309  1
  O  O67  1  0.744375  0.550102  0.446226  1
  O  O68  1  0.755625  0.949898  0.946226  1
  O  O69  1  0.742759  0.271899  0.026211  1
  O  O70  1  0.757241  0.228101  0.526212  1
  O  O71  1  0.809318  0.572347  0.831309  1
  O  O72  1  0.824422  0.812542  0.715731  1
  O  O73  1  0.874199  0.755999  0.013176  1
  O  O74  1  0.857602  0.018557  0.574351  1
  O  O75  1  0.876665  0.160942  0.808071  1
  O  O76  1  0.900436  0.409831  0.636361  1
  O  O77  1  0.927716  0.808180  0.423427  1
  O  O78  1  0.936366  0.392811  0.344199  1
  O  O79  1  0.930445  0.094913  0.110176  1
  O  O80  1  0.935758  0.561065  0.120068  1
