# generated using pymatgen
data_LiV5O10
_symmetry_space_group_name_H-M   'P 1'
_cell_length_a   5.14822302
_cell_length_b   5.11187735
_cell_length_c   8.14526276
_cell_angle_alpha   112.16278700
_cell_angle_beta   98.13628422
_cell_angle_gamma   101.03187423
_symmetry_Int_Tables_number   1
_chemical_formula_structural   LiV5O10
_chemical_formula_sum   'Li1 V5 O10'
_cell_volume   189.39133103
_cell_formula_units_Z   1
loop_
 _symmetry_equiv_pos_site_id
 _symmetry_equiv_pos_as_xyz
  1  'x, y, z'
loop_
 _atom_site_type_symbol
 _atom_site_label
 _atom_site_symmetry_multiplicity
 _atom_site_fract_x
 _atom_site_fract_y
 _atom_site_fract_z
 _atom_site_occupancy
  Li  Li1  1  0.705755  0.047532  0.551654  1
  V  V2  1  0.102814  0.719430  0.681818  1
  V  V3  1  0.008474  0.497763  0.998865  1
  V  V4  1  0.684485  0.872201  0.886801  1
  V  V5  1  0.346233  0.118693  0.140269  1
  V  V6  1  0.922733  0.318774  0.318800  1
  O  O7  1  0.019371  0.080794  0.850014  1
  O  O8  1  0.083278  0.306485  0.518046  1
  O  O9  1  0.338776  0.736327  0.947932  1
  O  O10  1  0.205557  0.460858  0.214562  1
  O  O11  1  0.466525  0.877751  0.692037  1
  O  O12  1  0.547408  0.127219  0.330737  1
  O  O13  1  0.813221  0.531708  0.778272  1
  O  O14  1  0.676107  0.268880  0.067198  1
  O  O15  1  0.900753  0.706723  0.478575  1
  O  O16  1  0.965158  0.916475  0.126494  1
