# generated using pymatgen
data_LiV9O22
_symmetry_space_group_name_H-M   'P 1'
_cell_length_a   21.81035128
_cell_length_b   3.68096574
_cell_length_c   10.30663074
_cell_angle_alpha   90.00000000
_cell_angle_beta   103.58294863
_cell_angle_gamma   90.00000000
_symmetry_Int_Tables_number   1
_chemical_formula_structural   LiV9O22
_chemical_formula_sum   'Li2 V18 O44'
_cell_volume   804.30587273
_cell_formula_units_Z   2
loop_
 _symmetry_equiv_pos_site_id
 _symmetry_equiv_pos_as_xyz
  1  'x, y, z'
loop_
 _atom_site_type_symbol
 _atom_site_label
 _atom_site_symmetry_multiplicity
 _atom_site_fract_x
 _atom_site_fract_y
 _atom_site_fract_z
 _atom_site_occupancy
  Li  Li1  1  0.486551  0.250000  0.410875  1
  Li  Li2  1  0.513449  0.750000  0.589125  1
  V  V3  1  0.025844  0.250000  0.405195  1
  V  V4  1  0.092644  0.750000  0.865864  1
  V  V5  1  0.059869  0.250000  0.091063  1
  V  V6  1  0.285430  0.250000  0.843940  1
  V  V7  1  0.253330  0.750000  0.067360  1
  V  V8  1  0.311243  0.250000  0.523521  1
  V  V9  1  0.364335  0.750000  0.342769  1
  V  V10  1  0.430165  0.250000  0.786651  1
  V  V11  1  0.404356  0.750000  0.022018  1
  V  V12  1  0.595644  0.250000  0.977982  1
  V  V13  1  0.569835  0.750000  0.213349  1
  V  V14  1  0.635665  0.250000  0.657231  1
  V  V15  1  0.688757  0.750000  0.476479  1
  V  V16  1  0.746670  0.250000  0.932640  1
  V  V17  1  0.714570  0.750000  0.156060  1
  V  V18  1  0.940131  0.750000  0.908937  1
  V  V19  1  0.907356  0.250000  0.134136  1
  V  V20  1  0.974156  0.750000  0.594805  1
  O  O21  1  0.003299  0.750000  0.424377  1
  O  O22  1  0.007430  0.250000  0.218096  1
  O  O23  1  0.081232  0.250000  0.910001  1
  O  O24  1  0.101623  0.750000  0.714431  1
  O  O25  1  0.044944  0.750000  0.044799  1
  O  O26  1  0.100862  0.250000  0.445241  1
  O  O27  1  0.173285  0.750000  0.972237  1
  O  O28  1  0.128769  0.250000  0.189068  1
  O  O29  1  0.215116  0.250000  0.752907  1
  O  O30  1  0.236266  0.250000  0.488255  1
  O  O31  1  0.302638  0.750000  0.892171  1
  O  O32  1  0.250250  0.750000  0.224223  1
  O  O33  1  0.333231  0.250000  0.712287  1
  O  O34  1  0.267072  0.250000  0.026292  1
  O  O35  1  0.332238  0.750000  0.508290  1
  O  O36  1  0.393151  0.250000  0.973435  1
  O  O37  1  0.340752  0.250000  0.356736  1
  O  O38  1  0.356866  0.750000  0.145584  1
  O  O39  1  0.426442  0.750000  0.844090  1
  O  O40  1  0.441114  0.250000  0.632423  1
  O  O41  1  0.443923  0.750000  0.403510  1
  O  O42  1  0.522426  0.250000  0.878048  1
  O  O43  1  0.477574  0.750000  0.121952  1
  O  O44  1  0.556077  0.250000  0.596490  1
  O  O45  1  0.558886  0.750000  0.367577  1
  O  O46  1  0.573558  0.250000  0.155910  1
  O  O47  1  0.643134  0.250000  0.854416  1
  O  O48  1  0.659248  0.750000  0.643264  1
  O  O49  1  0.606849  0.750000  0.026565  1
  O  O50  1  0.667762  0.250000  0.491710  1
  O  O51  1  0.732928  0.750000  0.973708  1
  O  O52  1  0.666769  0.750000  0.287713  1
  O  O53  1  0.749750  0.250000  0.775777  1
  O  O54  1  0.697362  0.250000  0.107829  1
  O  O55  1  0.763734  0.750000  0.511745  1
  O  O56  1  0.784884  0.750000  0.247093  1
  O  O57  1  0.871231  0.750000  0.810932  1
  O  O58  1  0.826715  0.250000  0.027763  1
  O  O59  1  0.899138  0.750000  0.554759  1
  O  O60  1  0.955056  0.250000  0.955201  1
  O  O61  1  0.898377  0.250000  0.285569  1
  O  O62  1  0.918768  0.750000  0.089999  1
  O  O63  1  0.992570  0.750000  0.781904  1
  O  O64  1  0.996701  0.250000  0.575623  1
