# generated using pymatgen
data_Li5V18O44
_symmetry_space_group_name_H-M   'P 1'
_cell_length_a   22.08209084
_cell_length_b   3.67351767
_cell_length_c   10.37041930
_cell_angle_alpha   90.00000000
_cell_angle_beta   107.30011356
_cell_angle_gamma   90.00000000
_symmetry_Int_Tables_number   1
_chemical_formula_structural   Li5V18O44
_chemical_formula_sum   'Li5 V18 O44'
_cell_volume   803.18012463
_cell_formula_units_Z   1
loop_
 _symmetry_equiv_pos_site_id
 _symmetry_equiv_pos_as_xyz
  1  'x, y, z'
loop_
 _atom_site_type_symbol
 _atom_site_label
 _atom_site_symmetry_multiplicity
 _atom_site_fract_x
 _atom_site_fract_y
 _atom_site_fract_z
 _atom_site_occupancy
  Li  Li1  1  0.161586  0.750000  0.627486  1
  Li  Li2  1  0.182557  0.750000  0.288654  1
  Li  Li3  1  0.483582  0.250000  0.467021  1
  Li  Li4  1  0.818492  0.250000  0.710736  1
  Li  Li5  1  0.838918  0.250000  0.373300  1
  V  V6  1  0.026089  0.250000  0.407367  1
  V  V7  1  0.086294  0.750000  0.865713  1
  V  V8  1  0.061548  0.250000  0.091600  1
  V  V9  1  0.282500  0.250000  0.828911  1
  V  V10  1  0.253628  0.750000  0.047696  1
  V  V11  1  0.314584  0.250000  0.510306  1
  V  V12  1  0.364040  0.750000  0.319714  1
  V  V13  1  0.429460  0.250000  0.777004  1
  V  V14  1  0.404378  0.750000  0.005221  1
  V  V15  1  0.595691  0.250000  0.990613  1
  V  V16  1  0.570533  0.750000  0.218408  1
  V  V17  1  0.636585  0.250000  0.679498  1
  V  V18  1  0.685841  0.750000  0.490191  1
  V  V19  1  0.746211  0.250000  0.951152  1
  V  V20  1  0.717178  0.750000  0.171215  1
  V  V21  1  0.938298  0.750000  0.908555  1
  V  V22  1  0.913039  0.250000  0.133365  1
  V  V23  1  0.973878  0.750000  0.592082  1
  O  O24  1  0.007140  0.750000  0.430362  1
  O  O25  1  0.081125  0.250000  0.911164  1
  O  O26  1  0.012074  0.250000  0.226361  1
  O  O27  1  0.091863  0.750000  0.708669  1
  O  O28  1  0.044259  0.750000  0.036105  1
  O  O29  1  0.103605  0.250000  0.468785  1
  O  O30  1  0.172260  0.750000  0.961438  1
  O  O31  1  0.133101  0.250000  0.207553  1
  O  O32  1  0.210856  0.250000  0.713099  1
  O  O33  1  0.236912  0.250000  0.452404  1
  O  O34  1  0.301049  0.750000  0.887958  1
  O  O35  1  0.253657  0.750000  0.210289  1
  O  O36  1  0.331602  0.250000  0.692145  1
  O  O37  1  0.264331  0.250000  0.009094  1
  O  O38  1  0.387962  0.250000  0.956624  1
  O  O39  1  0.332362  0.750000  0.486050  1
  O  O40  1  0.346949  0.250000  0.346109  1
  O  O41  1  0.425358  0.750000  0.829689  1
  O  O42  1  0.356664  0.750000  0.143582  1
  O  O43  1  0.435016  0.250000  0.621259  1
  O  O44  1  0.442023  0.750000  0.389348  1
  O  O45  1  0.520948  0.250000  0.881155  1
  O  O46  1  0.479338  0.750000  0.116741  1
  O  O47  1  0.560052  0.250000  0.614707  1
  O  O48  1  0.564292  0.750000  0.372789  1
  O  O49  1  0.645679  0.250000  0.858301  1
  O  O50  1  0.574544  0.250000  0.169028  1
  O  O51  1  0.655739  0.750000  0.654747  1
  O  O52  1  0.667436  0.250000  0.511973  1
  O  O53  1  0.612743  0.750000  0.042543  1
  O  O54  1  0.736591  0.750000  0.992481  1
  O  O55  1  0.668074  0.750000  0.306487  1
  O  O56  1  0.748366  0.250000  0.790692  1
  O  O57  1  0.699821  0.250000  0.118165  1
  O  O58  1  0.763536  0.750000  0.546633  1
  O  O59  1  0.788812  0.750000  0.286562  1
  O  O60  1  0.866798  0.750000  0.792143  1
  O  O61  1  0.828048  0.250000  0.040394  1
  O  O62  1  0.896366  0.750000  0.530995  1
  O  O63  1  0.955865  0.250000  0.966022  1
  O  O64  1  0.908424  0.250000  0.291330  1
  O  O65  1  0.988186  0.750000  0.773675  1
  O  O66  1  0.919024  0.750000  0.089385  1
  O  O67  1  0.992871  0.250000  0.569764  1
