# generated using pymatgen
data_Li(CoO2)2
_symmetry_space_group_name_H-M   'P 1'
_cell_length_a   9.56302991
_cell_length_b   9.56302991
_cell_length_c   9.56302981
_cell_angle_alpha   16.92379752
_cell_angle_beta   16.92379752
_cell_angle_gamma   16.92379849
_symmetry_Int_Tables_number   1
_chemical_formula_structural   Li(CoO2)2
_chemical_formula_sum   'Li1 Co2 O4'
_cell_volume   64.64665245
_cell_formula_units_Z   1
loop_
 _symmetry_equiv_pos_site_id
 _symmetry_equiv_pos_as_xyz
  1  'x, y, z'
loop_
 _atom_site_type_symbol
 _atom_site_label
 _atom_site_symmetry_multiplicity
 _atom_site_fract_x
 _atom_site_fract_y
 _atom_site_fract_z
 _atom_site_occupancy
  Li  Li1  1  0.913351  0.913351  0.913351  1
  Co  Co2  1  0.497295  0.497295  0.497295  1
  Co  Co3  1  0.002088  0.002088  0.002088  1
  O  O4  1  0.366537  0.366537  0.366537  1
  O  O5  1  0.630987  0.630987  0.630987  1
  O  O6  1  0.201784  0.201784  0.201784  1
  O  O7  1  0.799458  0.799458  0.799458  1
