# generated using pymatgen
data_Li3V7O12
_symmetry_space_group_name_H-M   'P 1'
_cell_length_a   5.22644447
_cell_length_b   5.22644428
_cell_length_c   9.91032552
_cell_angle_alpha   84.48436296
_cell_angle_beta   95.51563264
_cell_angle_gamma   59.71989914
_symmetry_Int_Tables_number   1
_chemical_formula_structural   Li3V7O12
_chemical_formula_sum   'Li3 V7 O12'
_cell_volume   229.37754496
_cell_formula_units_Z   1
loop_
 _symmetry_equiv_pos_site_id
 _symmetry_equiv_pos_as_xyz
  1  'x, y, z'
loop_
 _atom_site_type_symbol
 _atom_site_label
 _atom_site_symmetry_multiplicity
 _atom_site_fract_x
 _atom_site_fract_y
 _atom_site_fract_z
 _atom_site_occupancy
  Li  Li1  1  0.156439  0.676063  0.512620  1
  Li  Li2  1  0.676063  0.156439  0.987380  1
  Li  Li3  1  0.920194  0.920194  0.750000  1
  V  V4  1  0.084668  0.084668  0.250000  1
  V  V5  1  0.999265  0.518559  0.987545  1
  V  V6  1  0.237299  0.237299  0.750000  1
  V  V7  1  0.518559  0.999265  0.512455  1
  V  V8  1  0.424535  0.424535  0.250000  1
  V  V9  1  0.574071  0.574071  0.750000  1
  V  V10  1  0.751362  0.751362  0.250000  1
  O  O11  1  0.147779  0.370077  0.362523  1
  O  O12  1  0.033800  0.788074  0.136105  1
  O  O13  1  0.370077  0.147779  0.137478  1
  O  O14  1  0.288279  0.505239  0.867874  1
  O  O15  1  0.505239  0.288279  0.632126  1
  O  O16  1  0.238179  0.944868  0.633363  1
  O  O17  1  0.449771  0.732973  0.363699  1
  O  O18  1  0.788074  0.033800  0.363895  1
  O  O19  1  0.642354  0.846679  0.871709  1
  O  O20  1  0.732973  0.449771  0.136301  1
  O  O21  1  0.944868  0.238179  0.866637  1
  O  O22  1  0.846679  0.642354  0.628291  1
