# generated using pymatgen
data_LiVO2
_symmetry_space_group_name_H-M   'P 1'
_cell_length_a   5.16166204
_cell_length_b   5.21547697
_cell_length_c   7.90439421
_cell_angle_alpha   71.09843120
_cell_angle_beta   108.89771408
_cell_angle_gamma   99.36086849
_symmetry_Int_Tables_number   1
_chemical_formula_structural   LiVO2
_chemical_formula_sum   'Li5 V5 O10'
_cell_volume   190.06817236
_cell_formula_units_Z   5
loop_
 _symmetry_equiv_pos_site_id
 _symmetry_equiv_pos_as_xyz
  1  'x, y, z'
loop_
 _atom_site_type_symbol
 _atom_site_label
 _atom_site_symmetry_multiplicity
 _atom_site_fract_x
 _atom_site_fract_y
 _atom_site_fract_z
 _atom_site_occupancy
  Li  Li1  1  0.494696  0.220730  0.582022  1
  Li  Li2  1  0.505600  0.393263  0.220110  1
  Li  Li3  1  0.994995  0.501789  0.495751  1
  Li  Li4  1  0.495367  0.782988  0.409608  1
  Li  Li5  1  0.484225  0.611203  0.771225  1
  V  V6  1  0.494893  0.002043  0.995799  1
  V  V7  1  0.004259  0.098638  0.308080  1
  V  V8  1  0.995095  0.310445  0.886228  1
  V  V9  1  0.994542  0.693465  0.105318  1
  V  V10  1  0.985587  0.905282  0.683405  1
  O  O11  1  0.230833  0.051367  0.134252  1
  O  O12  1  0.762246  0.143118  0.451498  1
  O  O13  1  0.760794  0.332480  0.048621  1
  O  O14  1  0.244701  0.235311  0.760813  1
  O  O15  1  0.222875  0.450902  0.331997  1
  O  O16  1  0.767041  0.553123  0.659496  1
  O  O17  1  0.745073  0.768548  0.230787  1
  O  O18  1  0.228906  0.671417  0.942958  1
  O  O19  1  0.227774  0.860784  0.540062  1
  O  O20  1  0.758727  0.952538  0.857221  1
