# generated using pymatgen
data_Li6CoO4
_symmetry_space_group_name_H-M   'P 1'
_cell_length_a   4.69181946
_cell_length_b   6.58732702
_cell_length_c   6.58732702
_cell_angle_alpha   90.00000000
_cell_angle_beta   90.00000000
_cell_angle_gamma   90.00000000
_symmetry_Int_Tables_number   1
_chemical_formula_structural   Li6CoO4
_chemical_formula_sum   'Li12 Co2 O8'
_cell_volume   203.59154599
_cell_formula_units_Z   2
loop_
 _symmetry_equiv_pos_site_id
 _symmetry_equiv_pos_as_xyz
  1  'x, y, z'
loop_
 _atom_site_type_symbol
 _atom_site_label
 _atom_site_symmetry_multiplicity
 _atom_site_fract_x
 _atom_site_fract_y
 _atom_site_fract_z
 _atom_site_occupancy
  Li  Li1  1  0.750000  0.031715  0.968286  1
  Li  Li2  1  0.249999  0.531715  0.031715  1
  Li  Li3  1  0.249999  0.968286  0.468286  1
  Li  Li4  1  0.750000  0.468286  0.531715  1
  Li  Li5  1  0.249999  0.968286  0.031715  1
  Li  Li6  1  0.750000  0.468286  0.968286  1
  Li  Li7  1  0.750000  0.031715  0.531715  1
  Li  Li8  1  0.249999  0.531715  0.468286  1
  Li  Li9  1  0.299846  0.749999  0.749999  1
  Li  Li10  1  0.799847  0.749999  0.749999  1
  Li  Li11  1  0.700154  0.250000  0.250000  1
  Li  Li12  1  0.200153  0.250000  0.250000  1
  O  O13  1  0.963322  0.486599  0.250000  1
  O  O14  1  0.963322  0.013402  0.250000  1
  O  O15  1  0.536679  0.749999  0.513402  1
  O  O16  1  0.036678  0.986599  0.749999  1
  O  O17  1  0.036678  0.513402  0.749999  1
  O  O18  1  0.463323  0.250000  0.013402  1
  O  O19  1  0.463323  0.250000  0.486599  1
  O  O20  1  0.536679  0.749999  0.986599  1
  Co  Co21  1  0.249999  0.250000  0.749999  1
  Co  Co22  1  0.750000  0.749999  0.250000  1
