# generated using pymatgen
data_Li3V5O10
_symmetry_space_group_name_H-M   'P 1'
_cell_length_a   5.09070984
_cell_length_b   7.94438170
_cell_length_c   10.05100547
_cell_angle_alpha   93.39711554
_cell_angle_beta   100.65797403
_cell_angle_gamma   71.31307375
_symmetry_Int_Tables_number   1
_chemical_formula_structural   Li3V5O10
_chemical_formula_sum   'Li6 V10 O20'
_cell_volume   378.41676817
_cell_formula_units_Z   2
loop_
 _symmetry_equiv_pos_site_id
 _symmetry_equiv_pos_as_xyz
  1  'x, y, z'
loop_
 _atom_site_type_symbol
 _atom_site_label
 _atom_site_symmetry_multiplicity
 _atom_site_fract_x
 _atom_site_fract_y
 _atom_site_fract_z
 _atom_site_occupancy
  Li  Li1  1  0.852993  0.794014  0.750000  1
  Li  Li2  1  0.948657  0.602685  0.250000  1
  Li  Li3  1  0.348871  0.802258  0.250000  1
  Li  Li4  1  0.651129  0.197742  0.750000  1
  Li  Li5  1  0.051343  0.397315  0.750000  1
  Li  Li6  1  0.147007  0.205986  0.250000  1
  V  V7  1  0.596800  0.801732  0.992578  1
  V  V8  1  0.690100  0.594779  0.498151  1
  V  V9  1  0.784880  0.405221  0.998151  1
  V  V10  1  0.215120  0.594779  0.001849  1
  V  V11  1  0.101467  0.801732  0.507422  1
  V  V12  1  0.898533  0.198268  0.492578  1
  V  V13  1  0.403200  0.198268  0.007422  1
  V  V14  1  0.309900  0.405221  0.501849  1
  V  V15  1  0.500000  0.000000  0.500000  1
  V  V16  1  0.000000  0.000000  0.000000  1
  O  O17  1  0.981015  0.794786  0.105907  1
  O  O18  1  0.724199  0.794786  0.394093  1
  O  O19  1  0.941969  0.402761  0.391393  1
  O  O20  1  0.482675  0.797472  0.604393  1
  O  O21  1  0.844730  0.597239  0.891393  1
  O  O22  1  0.572333  0.609923  0.110453  1
  O  O23  1  0.317744  0.609923  0.389547  1
  O  O24  1  0.780147  0.202528  0.104393  1
  O  O25  1  0.219853  0.797472  0.895607  1
  O  O26  1  0.682256  0.390077  0.610453  1
  O  O27  1  0.427667  0.390077  0.889547  1
  O  O28  1  0.517325  0.202528  0.395607  1
  O  O29  1  0.058031  0.597239  0.608607  1
  O  O30  1  0.155270  0.402761  0.108607  1
  O  O31  1  0.848161  0.000554  0.608290  1
  O  O32  1  0.651285  0.000554  0.891710  1
  O  O33  1  0.275801  0.205214  0.605907  1
  O  O34  1  0.348715  0.999446  0.108290  1
  O  O35  1  0.018985  0.205214  0.894093  1
  O  O36  1  0.151839  0.999446  0.391710  1
