# generated using pymatgen
data_Li4V3O8
_symmetry_space_group_name_H-M   'P 1'
_cell_length_a   6.14726480
_cell_length_b   10.81649205
_cell_length_c   10.81324023
_cell_angle_alpha   31.35388511
_cell_angle_beta   28.41281629
_cell_angle_gamma   51.50448140
_symmetry_Int_Tables_number   1
_chemical_formula_structural   Li4V3O8
_chemical_formula_sum   'Li4 V3 O8'
_cell_volume   152.08928213
_cell_formula_units_Z   1
loop_
 _symmetry_equiv_pos_site_id
 _symmetry_equiv_pos_as_xyz
  1  'x, y, z'
loop_
 _atom_site_type_symbol
 _atom_site_label
 _atom_site_symmetry_multiplicity
 _atom_site_fract_x
 _atom_site_fract_y
 _atom_site_fract_z
 _atom_site_occupancy
  Li  Li1  1  0.999078  0.998771  0.000882  1
  Li  Li2  1  0.359828  0.358364  0.998987  1
  Li  Li3  1  0.501063  0.499754  -0.000218  1
  Li  Li4  1  0.641540  0.640288  0.000168  1
  V  V5  1  0.500824  0.999375  -0.000426  1
  V  V6  1  0.499464  0.499122  0.500474  1
  V  V7  1  0.499624  0.998751  0.501150  1
  O  O8  1  0.236480  0.235222  0.000444  1
  O  O9  1  0.195322  0.730121  0.024406  1
  O  O10  1  0.244754  0.218807  0.511210  1
  O  O11  1  0.268741  0.754801  0.463072  1
  O  O12  1  0.764378  0.762978  -0.000247  1
  O  O13  1  0.805424  0.269029  0.975429  1
  O  O14  1  0.756006  0.779328  0.489644  1
  O  O15  1  0.734997  0.244462  0.535144  1
