# generated using pymatgen
data_Li5V5O12
_symmetry_space_group_name_H-M   'P 1'
_cell_length_a   5.05749938
_cell_length_b   9.20175659
_cell_length_c   9.46256671
_cell_angle_alpha   95.48799254
_cell_angle_beta   93.74236923
_cell_angle_gamma   84.95902537
_symmetry_Int_Tables_number   1
_chemical_formula_structural   Li5V5O12
_chemical_formula_sum   'Li10 V10 O24'
_cell_volume   435.93507727
_cell_formula_units_Z   2
loop_
 _symmetry_equiv_pos_site_id
 _symmetry_equiv_pos_as_xyz
  1  'x, y, z'
loop_
 _atom_site_type_symbol
 _atom_site_label
 _atom_site_symmetry_multiplicity
 _atom_site_fract_x
 _atom_site_fract_y
 _atom_site_fract_z
 _atom_site_occupancy
  Li  Li1  1  0.746388  0.927302  0.005459  1
  Li  Li2  1  0.775557  0.572105  0.000385  1
  Li  Li3  1  0.605086  0.466300  0.246945  1
  Li  Li4  1  0.670255  0.135137  0.268793  1
  Li  Li5  1  0.522729  0.321705  0.501440  1
  Li  Li6  1  0.468674  0.659884  0.487592  1
  Li  Li7  1  0.265359  0.077896  0.008591  1
  Li  Li8  1  0.109489  0.958602  0.248554  1
  Li  Li9  1  0.116295  0.601327  0.228796  1
  Li  Li10  1  0.014863  0.830779  0.491875  1
  V  V11  1  0.996621  0.487350  0.495691  1
  V  V12  1  0.848173  0.715641  0.745664  1
  V  V13  1  0.898729  0.035598  0.742958  1
  V  V14  1  0.731217  0.258702  0.017765  1
  V  V15  1  0.644152  0.785614  0.254535  1
  V  V16  1  0.470647  0.006950  0.487607  1
  V  V17  1  0.382956  0.539967  0.751305  1
  V  V18  1  0.252639  0.754403  0.008048  1
  V  V19  1  0.358089  0.222821  0.761514  1
  V  V20  1  0.137070  0.292213  0.249787  1
  O  O21  1  0.944936  0.772077  0.125549  1
  O  O22  1  0.919754  0.413631  0.117173  1
  O  O23  1  0.959582  0.127549  0.135257  1
  O  O24  1  0.802606  0.642163  0.364098  1
  O  O25  1  0.837336  0.340102  0.395284  1
  O  O26  1  0.773000  0.955125  0.362948  1
  O  O27  1  0.717875  0.872263  0.635806  1
  O  O28  1  0.696697  0.552153  0.631869  1
  O  O29  1  0.633713  0.157179  0.627351  1
  O  O30  1  0.427768  0.908501  0.113276  1
  O  O31  1  0.553599  0.709952  0.867109  1
  O  O32  1  0.447380  0.630827  0.130123  1
  O  O33  1  0.540242  0.375492  0.866011  1
  O  O34  1  0.604124  0.091006  0.881207  1
  O  O35  1  0.460134  0.261926  0.127703  1
  O  O36  1  0.345556  0.832481  0.388198  1
  O  O37  1  0.331962  0.143498  0.377655  1
  O  O38  1  0.288164  0.462750  0.368774  1
  O  O39  1  0.224018  0.374084  0.634054  1
  O  O40  1  0.146893  0.660723  0.608682  1
  O  O41  1  0.179404  0.032205  0.631933  1
  O  O42  1  0.030503  0.885790  0.869994  1
  O  O43  1  0.078244  0.604802  0.875217  1
  O  O44  1  0.066355  0.201819  0.861424  1
