# generated using pymatgen
data_LiV3O8
_symmetry_space_group_name_H-M   'P 1'
_cell_length_a   6.96986060
_cell_length_b   3.62309515
_cell_length_c   12.62385505
_cell_angle_alpha   90.00000000
_cell_angle_beta   107.31337384
_cell_angle_gamma   90.00000000
_symmetry_Int_Tables_number   1
_chemical_formula_structural   LiV3O8
_chemical_formula_sum   'Li2 V6 O16'
_cell_volume   304.33985127
_cell_formula_units_Z   2
loop_
 _symmetry_equiv_pos_site_id
 _symmetry_equiv_pos_as_xyz
  1  'x, y, z'
loop_
 _atom_site_type_symbol
 _atom_site_label
 _atom_site_symmetry_multiplicity
 _atom_site_fract_x
 _atom_site_fract_y
 _atom_site_fract_z
 _atom_site_occupancy
  Li  Li1  1  0.583016  0.250000  0.040501  1
  Li  Li2  1  0.656537  0.250000  0.301712  1
  V  V3  1  0.059879  0.250000  0.800273  1
  V  V4  1  0.156565  0.750000  0.462758  1
  V  V5  1  0.212380  0.250000  0.072809  1
  V  V6  1  0.799669  0.750000  0.922424  1
  V  V7  1  0.863451  0.250000  0.547784  1
  V  V8  1  0.965690  0.750000  0.202620  1
  O  O9  1  0.009188  0.750000  0.829983  1
  O  O10  1  0.280348  0.250000  0.951154  1
  O  O11  1  0.060456  0.250000  0.455732  1
  O  O12  1  0.215095  0.250000  0.727487  1
  O  O13  1  0.190691  0.750000  0.323777  1
  O  O14  1  0.134450  0.750000  0.078294  1
  O  O15  1  0.376153  0.750000  0.549151  1
  O  O16  1  0.583642  0.750000  0.830360  1
  O  O17  1  0.441322  0.250000  0.164191  1
  O  O18  1  0.643836  0.250000  0.453448  1
  O  O19  1  0.887376  0.250000  0.935049  1
  O  O20  1  0.820831  0.250000  0.678764  1
  O  O21  1  0.793709  0.750000  0.271327  1
  O  O22  1  0.954703  0.750000  0.548991  1
  O  O23  1  0.732665  0.750000  0.051492  1
  O  O24  1  0.002279  0.250000  0.172014  1
