# generated using pymatgen
data_Li2VO3
_symmetry_space_group_name_H-M   'P 1'
_cell_length_a   15.24537015
_cell_length_b   9.81905201
_cell_length_c   9.81905207
_cell_angle_alpha   17.38834962
_cell_angle_beta   16.68275681
_cell_angle_gamma   16.68275699
_symmetry_Int_Tables_number   1
_chemical_formula_structural   Li2VO3
_chemical_formula_sum   'Li4 V2 O6'
_cell_volume   108.44911544
_cell_formula_units_Z   2
loop_
 _symmetry_equiv_pos_site_id
 _symmetry_equiv_pos_as_xyz
  1  'x, y, z'
loop_
 _atom_site_type_symbol
 _atom_site_label
 _atom_site_symmetry_multiplicity
 _atom_site_fract_x
 _atom_site_fract_y
 _atom_site_fract_z
 _atom_site_occupancy
  Li  Li1  1  0.666667  0.000000  0.000000  1
  Li  Li2  1  0.166667  0.500000  0.500000  1
  Li  Li3  1  0.501528  0.501105  0.501105  1
  Li  Li4  1  0.831806  0.498895  0.498895  1
  V  V5  1  0.032721  0.977478  0.977478  1
  V  V6  1  0.300612  0.022522  0.022522  1
  O  O7  1  0.220503  0.277601  0.277601  1
  O  O8  1  0.579778  0.261051  0.261051  1
  O  O9  1  0.112830  0.722399  0.722399  1
  O  O10  1  0.950444  0.228364  0.228364  1
  O  O11  1  0.382889  0.771636  0.771636  1
  O  O12  1  0.753555  0.738949  0.738949  1
