# generated using pymatgen
data_Li2V6O15
_symmetry_space_group_name_H-M   'P 1'
_cell_length_a   10.39932918
_cell_length_b   8.08146072
_cell_length_c   8.08146072
_cell_angle_alpha   26.25768901
_cell_angle_beta   112.24887459
_cell_angle_gamma   112.24887459
_symmetry_Int_Tables_number   1
_chemical_formula_structural   Li2V6O15
_chemical_formula_sum   'Li2 V6 O15'
_cell_volume   276.83564832
_cell_formula_units_Z   1
loop_
 _symmetry_equiv_pos_site_id
 _symmetry_equiv_pos_as_xyz
  1  'x, y, z'
loop_
 _atom_site_type_symbol
 _atom_site_label
 _atom_site_symmetry_multiplicity
 _atom_site_fract_x
 _atom_site_fract_y
 _atom_site_fract_z
 _atom_site_occupancy
  Li  Li1  1  0.677047  0.992811  0.992811  1
  Li  Li2  1  0.322953  0.007189  0.007189  1
  V  V3  1  0.103298  0.337956  0.337956  1
  V  V4  1  0.112429  0.121055  0.121055  1
  V  V5  1  0.585959  0.711755  0.711755  1
  V  V6  1  0.414041  0.288245  0.288245  1
  V  V7  1  0.887571  0.878945  0.878945  1
  V  V8  1  0.896702  0.662044  0.662044  1
  O  O9  1  0.040859  0.814027  0.814027  1
  O  O10  1  0.000000  0.000000  0.000000  1
  O  O11  1  0.072078  0.632800  0.632800  1
  O  O12  1  0.237520  0.442076  0.442076  1
  O  O13  1  0.432318  0.759937  0.759937  1
  O  O14  1  0.229527  0.265588  0.265588  1
  O  O15  1  0.510133  0.599163  0.599163  1
  O  O16  1  0.268270  0.114327  0.114327  1
  O  O17  1  0.731730  0.885673  0.885673  1
  O  O18  1  0.489867  0.400837  0.400837  1
  O  O19  1  0.770473  0.734412  0.734412  1
  O  O20  1  0.567682  0.240063  0.240063  1
  O  O21  1  0.762480  0.557924  0.557924  1
  O  O22  1  0.927922  0.367200  0.367200  1
  O  O23  1  0.959141  0.185973  0.185973  1
