# generated using pymatgen
data_Li13Co15O28
_symmetry_space_group_name_H-M   'P 1'
_cell_length_a   8.25594700
_cell_length_b   8.89005316
_cell_length_c   7.76922014
_cell_angle_alpha   104.98161198
_cell_angle_beta   75.46298331
_cell_angle_gamma   76.06117387
_symmetry_Int_Tables_number   1
_chemical_formula_structural   Li13Co15O28
_chemical_formula_sum   'Li13 Co15 O28'
_cell_volume   503.89674349
_cell_formula_units_Z   1
loop_
 _symmetry_equiv_pos_site_id
 _symmetry_equiv_pos_as_xyz
  1  'x, y, z'
loop_
 _atom_site_type_symbol
 _atom_site_label
 _atom_site_symmetry_multiplicity
 _atom_site_fract_x
 _atom_site_fract_y
 _atom_site_fract_z
 _atom_site_occupancy
  Li  Li1  1  0.711017  0.215204  0.928447  1
  Li  Li2  1  0.571573  0.072662  0.644679  1
  Li  Li3  1  0.429534  0.427741  0.854299  1
  Li  Li4  1  0.853637  0.857355  0.716461  1
  Li  Li5  1  0.853559  0.360220  0.217704  1
  Li  Li6  1  0.287534  0.286456  0.570008  1
  Li  Li7  1  0.712466  0.713544  0.429992  1
  Li  Li8  1  0.146363  0.142645  0.283539  1
  Li  Li9  1  0.570466  0.572259  0.145701  1
  Li  Li10  1  0.146441  0.639780  0.782296  1
  Li  Li11  1  0.000000  0.500000  0.500000  1
  Li  Li12  1  0.428427  0.927338  0.355321  1
  Li  Li13  1  0.288983  0.784796  0.071553  1
  Co  Co14  1  0.928458  0.433894  0.859042  1
  Co  Co15  1  0.786049  0.287201  0.571591  1
  Co  Co16  1  0.215642  0.213474  0.933909  1
  Co  Co17  1  0.639590  0.146864  0.287722  1
  Co  Co18  1  0.643240  0.640326  0.788078  1
  Co  Co19  1  0.931827  0.923276  0.353201  1
  Co  Co20  1  0.500000  0.000000  0.000000  1
  Co  Co21  1  0.068173  0.076724  0.646799  1
  Co  Co22  1  0.500000  0.500000  0.500000  1
  Co  Co23  1  0.356760  0.359674  0.211922  1
  Co  Co24  1  0.784358  0.786526  0.066091  1
  Co  Co25  1  0.360410  0.853136  0.712278  1
  Co  Co26  1  0.213951  0.712799  0.428409  1
  Co  Co27  1  0.000000  0.000000  0.000000  1
  Co  Co28  1  0.071542  0.566106  0.140958  1
  O  O29  1  0.969942  0.198944  0.929782  1
  O  O30  1  0.833415  0.074837  0.632281  1
  O  O31  1  0.694644  0.439766  0.856884  1
  O  O32  1  0.458274  0.210929  0.931621  1
  O  O33  1  0.885567  0.651212  0.796191  1
  O  O34  1  0.236960  0.002289  0.995071  1
  O  O35  1  0.890003  0.129158  0.272060  1
  O  O36  1  0.543730  0.297075  0.560390  1
  O  O37  1  0.976397  0.705145  0.404018  1
  O  O38  1  0.307449  0.074761  0.653493  1
  O  O39  1  0.733898  0.495367  0.509304  1
  O  O40  1  0.842531  0.568721  0.124253  1
  O  O41  1  0.405841  0.149578  0.278937  1
  O  O42  1  0.595051  0.364169  0.234583  1
  O  O43  1  0.404949  0.635831  0.765417  1
  O  O44  1  0.594159  0.850422  0.721063  1
  O  O45  1  0.157469  0.431279  0.875747  1
  O  O46  1  0.692551  0.925239  0.346507  1
  O  O47  1  0.023603  0.294855  0.595982  1
  O  O48  1  0.266102  0.504633  0.490696  1
  O  O49  1  0.456270  0.702925  0.439610  1
  O  O50  1  0.305356  0.560234  0.143116  1
  O  O51  1  0.114433  0.348788  0.203809  1
  O  O52  1  0.109997  0.870842  0.727940  1
  O  O53  1  0.541726  0.789071  0.068379  1
  O  O54  1  0.763040  0.997710  0.004929  1
  O  O55  1  0.166585  0.925163  0.367719  1
  O  O56  1  0.030058  0.801056  0.070218  1
