# generated using pymatgen
data_Li8VO6
_symmetry_space_group_name_H-M   'P 1'
_cell_length_a   5.34164409
_cell_length_b   5.85563062
_cell_length_c   5.43543066
_cell_angle_alpha   116.88715444
_cell_angle_beta   119.30089256
_cell_angle_gamma   63.89858726
_symmetry_Int_Tables_number   1
_chemical_formula_structural   Li8VO6
_chemical_formula_sum   'Li8 V1 O6'
_cell_volume   126.90267182
_cell_formula_units_Z   1
loop_
 _symmetry_equiv_pos_site_id
 _symmetry_equiv_pos_as_xyz
  1  'x, y, z'
loop_
 _atom_site_type_symbol
 _atom_site_label
 _atom_site_symmetry_multiplicity
 _atom_site_fract_x
 _atom_site_fract_y
 _atom_site_fract_z
 _atom_site_occupancy
  Li  Li1  1  0.235599  0.355860  0.491970  1
  Li  Li2  1  0.101568  0.648480  0.240090  1
  Li  Li3  1  0.487557  0.644723  0.898648  1
  Li  Li4  1  0.345116  0.976018  0.656036  1
  Li  Li5  1  0.654884  0.023982  0.343964  1
  Li  Li6  1  0.512443  0.355277  0.101352  1
  Li  Li7  1  0.898432  0.351520  0.759910  1
  Li  Li8  1  0.764401  0.644140  0.508030  1
  V  V9  1  0.000000  0.000000  0.000000  1
  O  O10  1  0.093030  0.763894  0.624504  1
  O  O11  1  0.222739  0.231149  0.086431  1
  O  O12  1  0.620167  0.233039  0.767088  1
  O  O13  1  0.379833  0.766961  0.232912  1
  O  O14  1  0.777261  0.768851  0.913569  1
  O  O15  1  0.906970  0.236106  0.375496  1
