# generated using pymatgen
data_LiV2O5
_symmetry_space_group_name_H-M   'P 1'
_cell_length_a   3.62219515
_cell_length_b   4.72743159
_cell_length_c   11.48918170
_cell_angle_alpha   90.00000000
_cell_angle_beta   90.00000000
_cell_angle_gamma   90.00000000
_symmetry_Int_Tables_number   1
_chemical_formula_structural   LiV2O5
_chemical_formula_sum   'Li2 V4 O10'
_cell_volume   196.73706833
_cell_formula_units_Z   2
loop_
 _symmetry_equiv_pos_site_id
 _symmetry_equiv_pos_as_xyz
  1  'x, y, z'
loop_
 _atom_site_type_symbol
 _atom_site_label
 _atom_site_symmetry_multiplicity
 _atom_site_fract_x
 _atom_site_fract_y
 _atom_site_fract_z
 _atom_site_occupancy
  Li  Li1  1  0.250001  0.715201  0.750000  1
  Li  Li2  1  0.749999  0.284799  0.250000  1
  O  O3  1  0.749999  0.451438  0.881092  1
  O  O4  1  0.250001  0.031883  0.250000  1
  O  O5  1  0.250001  0.548560  0.118907  1
  O  O6  1  0.749999  0.968118  0.750000  1
  O  O7  1  0.250001  0.548560  0.381093  1
  O  O8  1  0.749999  0.451438  0.618907  1
  O  O9  1  0.749999  0.024443  0.072764  1
  O  O10  1  0.749999  0.024443  0.427236  1
  O  O11  1  0.250001  0.975558  0.927236  1
  O  O12  1  0.250001  0.975558  0.572764  1
  V  V13  1  0.749999  0.107534  0.900687  1
  V  V14  1  0.250001  0.892467  0.099313  1
  V  V15  1  0.749999  0.107534  0.599313  1
  V  V16  1  0.250001  0.892467  0.400687  1
