# generated using pymatgen
data_LiV2O5
_symmetry_space_group_name_H-M   'P 1'
_cell_length_a   3.66346448
_cell_length_b   5.34257760
_cell_length_c   11.43070246
_cell_angle_alpha   90.00000000
_cell_angle_beta   90.00000000
_cell_angle_gamma   110.05094380
_symmetry_Int_Tables_number   1
_chemical_formula_structural   LiV2O5
_chemical_formula_sum   'Li2 V4 O10'
_cell_volume   210.16520714
_cell_formula_units_Z   2
loop_
 _symmetry_equiv_pos_site_id
 _symmetry_equiv_pos_as_xyz
  1  'x, y, z'
loop_
 _atom_site_type_symbol
 _atom_site_label
 _atom_site_symmetry_multiplicity
 _atom_site_fract_x
 _atom_site_fract_y
 _atom_site_fract_z
 _atom_site_occupancy
  Li  Li1  1  0.901190  0.802378  0.750000  1
  Li  Li2  1  0.098810  0.197620  0.250000  1
  O  O3  1  0.954787  0.909572  0.126349  1
  O  O4  1  0.714984  0.429967  0.250000  1
  O  O5  1  0.285016  0.570031  0.750000  1
  O  O6  1  0.239894  0.479788  0.070985  1
  O  O7  1  0.045214  0.090429  0.626349  1
  O  O8  1  0.954787  0.909572  0.373652  1
  O  O9  1  0.760107  0.520213  0.929015  1
  O  O10  1  0.760107  0.520213  0.570985  1
  O  O11  1  0.239894  0.479788  0.429015  1
  O  O12  1  0.045214  0.090429  0.873651  1
  V  V13  1  0.205803  0.411607  0.601613  1
  V  V14  1  0.205803  0.411607  0.898387  1
  V  V15  1  0.794198  0.588394  0.101613  1
  V  V16  1  0.794198  0.588394  0.398387  1
