# generated using pymatgen
data_LiCo7O8
_symmetry_space_group_name_H-M   'P 1'
_cell_length_a   6.01351011
_cell_length_b   6.01618209
_cell_length_c   6.01482183
_cell_angle_alpha   59.91866857
_cell_angle_beta   59.93885618
_cell_angle_gamma   59.94535138
_symmetry_Int_Tables_number   1
_chemical_formula_structural   LiCo7O8
_chemical_formula_sum   'Li1 Co7 O8'
_cell_volume   153.64165974
_cell_formula_units_Z   1
loop_
 _symmetry_equiv_pos_site_id
 _symmetry_equiv_pos_as_xyz
  1  'x, y, z'
loop_
 _atom_site_type_symbol
 _atom_site_label
 _atom_site_symmetry_multiplicity
 _atom_site_fract_x
 _atom_site_fract_y
 _atom_site_fract_z
 _atom_site_occupancy
  Li  Li1  1  0.000000  0.000000  1.000000  1
  Co  Co2  1  -0.000000  0.000000  0.500000  1
  Co  Co3  1  1.000000  0.500000  1.000000  1
  Co  Co4  1  0.000000  0.500000  0.500000  1
  Co  Co5  1  0.500000  0.500000  1.000000  1
  Co  Co6  1  0.500000  0.500000  0.500000  1
  Co  Co7  1  0.500000  0.000000  0.000000  1
  Co  Co8  1  0.500000  0.000000  0.500000  1
  O  O9  1  0.250283  0.249851  0.249908  1
  O  O10  1  0.252297  0.252696  0.747087  1
  O  O11  1  0.252082  0.747878  0.252570  1
  O  O12  1  0.748068  0.251803  0.252173  1
  O  O13  1  0.251932  0.748197  0.747827  1
  O  O14  1  0.747703  0.747304  0.252913  1
  O  O15  1  0.747919  0.252122  0.747430  1
  O  O16  1  0.749717  0.750149  0.750092  1
