# generated using pymatgen
data_LiV2O4
_symmetry_space_group_name_H-M   'P 1'
_cell_length_a   5.93753766
_cell_length_b   5.93753831
_cell_length_c   5.93753796
_cell_angle_alpha   120.64239092
_cell_angle_beta   118.69043141
_cell_angle_gamma   90.58699465
_symmetry_Int_Tables_number   1
_chemical_formula_structural   LiV2O4
_chemical_formula_sum   'Li2 V4 O8'
_cell_volume   148.69906909
_cell_formula_units_Z   2
loop_
 _symmetry_equiv_pos_site_id
 _symmetry_equiv_pos_as_xyz
  1  'x, y, z'
loop_
 _atom_site_type_symbol
 _atom_site_label
 _atom_site_symmetry_multiplicity
 _atom_site_fract_x
 _atom_site_fract_y
 _atom_site_fract_z
 _atom_site_occupancy
  Li  Li1  1  0.000000  0.000000  0.500000  1
  Li  Li2  1  0.000000  0.500000  0.000000  1
  V  V3  1  0.000000  0.000000  0.000000  1
  V  V4  1  0.500000  0.000000  0.500000  1
  V  V5  1  0.379631  0.629631  0.750000  1
  V  V6  1  0.620369  0.370369  0.250000  1
  O  O7  1  0.248996  0.240410  0.491415  1
  O  O8  1  0.272620  0.761398  0.511221  1
  O  O9  1  0.750177  0.761398  0.988779  1
  O  O10  1  0.751004  0.242420  0.991415  1
  O  O11  1  0.248996  0.757580  0.008585  1
  O  O12  1  0.249823  0.238602  0.011221  1
  O  O13  1  0.727380  0.238602  0.488779  1
  O  O14  1  0.751004  0.759590  0.508585  1
