# generated using pymatgen
data_Li5V7O12
_symmetry_space_group_name_H-M   'P 1'
_cell_length_a   5.13543485
_cell_length_b   5.20540781
_cell_length_c   9.94478012
_cell_angle_alpha   95.32532789
_cell_angle_beta   78.99936135
_cell_angle_gamma   119.50073566
_symmetry_Int_Tables_number   1
_chemical_formula_structural   Li5V7O12
_chemical_formula_sum   'Li5 V7 O12'
_cell_volume   227.12556845
_cell_formula_units_Z   1
loop_
 _symmetry_equiv_pos_site_id
 _symmetry_equiv_pos_as_xyz
  1  'x, y, z'
loop_
 _atom_site_type_symbol
 _atom_site_label
 _atom_site_symmetry_multiplicity
 _atom_site_fract_x
 _atom_site_fract_y
 _atom_site_fract_z
 _atom_site_occupancy
  Li  Li1  1  0.161459  0.831167  0.003452  1
  Li  Li2  1  0.669286  0.832955  0.494978  1
  Li  Li3  1  0.082107  0.164646  0.250613  1
  Li  Li4  1  0.327155  0.164581  0.493883  1
  Li  Li5  1  0.840023  0.162070  0.008110  1
  V  V6  1  0.493333  0.488723  0.000087  1
  V  V7  1  0.236251  0.473435  0.749826  1
  V  V8  1  0.995982  0.489628  0.499378  1
  V  V9  1  0.574686  0.147980  0.750218  1
  V  V10  1  0.418999  0.839555  0.249913  1
  V  V11  1  0.913374  0.828306  0.749884  1
  V  V12  1  0.750238  0.500490  0.250272  1
  O  O13  1  0.037760  0.809537  0.369916  1
  O  O14  1  0.277778  0.796614  0.625788  1
  O  O15  1  0.145325  0.517007  0.128630  1
  O  O16  1  0.771886  0.810356  0.129412  1
  O  O17  1  0.517402  0.795430  0.874501  1
  O  O18  1  0.372287  0.517737  0.371573  1
  O  O19  1  0.619205  0.486799  0.626481  1
  O  O20  1  0.473004  0.182847  0.129073  1
  O  O21  1  0.867555  0.486667  0.873811  1
  O  O22  1  0.198969  0.163563  0.878578  1
  O  O23  1  0.709161  0.181826  0.370741  1
  O  O24  1  0.964413  0.163808  0.620791  1
