# generated using pymatgen
data_LiV3O8
_symmetry_space_group_name_H-M   'P 1'
_cell_length_a   3.62926472
_cell_length_b   6.83738348
_cell_length_c   11.94051479
_cell_angle_alpha   104.67690032
_cell_angle_beta   90.00000000
_cell_angle_gamma   90.00000000
_symmetry_Int_Tables_number   1
_chemical_formula_structural   LiV3O8
_chemical_formula_sum   'Li2 V6 O16'
_cell_volume   286.63171513
_cell_formula_units_Z   2
loop_
 _symmetry_equiv_pos_site_id
 _symmetry_equiv_pos_as_xyz
  1  'x, y, z'
loop_
 _atom_site_type_symbol
 _atom_site_label
 _atom_site_symmetry_multiplicity
 _atom_site_fract_x
 _atom_site_fract_y
 _atom_site_fract_z
 _atom_site_occupancy
  Li  Li1  1  0.250000  0.185581  0.686814  1
  Li  Li2  1  0.750000  0.814419  0.313186  1
  V  V3  1  0.250000  0.692912  0.537674  1
  V  V4  1  0.750000  0.307088  0.462326  1
  V  V5  1  0.250000  0.874512  0.080830  1
  V  V6  1  0.750000  0.125488  0.919170  1
  V  V7  1  0.250000  0.733916  0.807190  1
  V  V8  1  0.750000  0.266084  0.192810  1
  O  O9  1  0.250000  0.393472  0.459920  1
  O  O10  1  0.750000  0.606528  0.540080  1
  O  O11  1  0.250000  0.049611  0.927983  1
  O  O12  1  0.750000  0.950389  0.072017  1
  O  O13  1  0.250000  0.870670  0.673618  1
  O  O14  1  0.750000  0.129330  0.326382  1
  O  O15  1  0.250000  0.767887  0.189341  1
  O  O16  1  0.750000  0.232113  0.810659  1
  O  O17  1  0.250000  0.820268  0.437805  1
  O  O18  1  0.750000  0.179732  0.562195  1
  O  O19  1  0.250000  0.673788  0.951604  1
  O  O20  1  0.750000  0.326212  0.048396  1
  O  O21  1  0.250000  0.504220  0.722535  1
  O  O22  1  0.750000  0.495780  0.277465  1
  O  O23  1  0.250000  0.180311  0.174643  1
  O  O24  1  0.750000  0.819689  0.825357  1
