# generated using pymatgen
data_Li3Co11O14
_symmetry_space_group_name_H-M   'P 1'
_cell_length_a   5.13299822
_cell_length_b   10.76838884
_cell_length_c   5.12547691
_cell_angle_alpha   103.67807802
_cell_angle_beta   108.76902679
_cell_angle_gamma   85.74770016
_symmetry_Int_Tables_number   1
_chemical_formula_structural   Li3Co11O14
_chemical_formula_sum   'Li3 Co11 O14'
_cell_volume   260.63296890
_cell_formula_units_Z   1
loop_
 _symmetry_equiv_pos_site_id
 _symmetry_equiv_pos_as_xyz
  1  'x, y, z'
loop_
 _atom_site_type_symbol
 _atom_site_label
 _atom_site_symmetry_multiplicity
 _atom_site_fract_x
 _atom_site_fract_y
 _atom_site_fract_z
 _atom_site_occupancy
  Li  Li1  1  0.501782  0.286618  0.641060  1
  Li  Li2  1  0.998905  0.003609  0.000114  1
  Li  Li3  1  0.998720  0.567366  0.282456  1
  Co  Co4  1  0.000163  0.143804  0.570852  1
  Co  Co5  1  0.998241  0.715919  0.856860  1
  Co  Co6  1  0.999633  0.427867  0.711941  1
  Co  Co7  1  0.998113  0.857566  0.425267  1
  Co  Co8  1  0.497176  0.858830  0.926926  1
  Co  Co9  1  0.501194  0.008022  0.504938  1
  Co  Co10  1  0.000528  0.285249  0.141524  1
  Co  Co11  1  0.498357  0.565511  0.780402  1
  Co  Co12  1  0.497293  0.713025  0.354709  1
  Co  Co13  1  0.499494  0.428267  0.212001  1
  Co  Co14  1  0.500021  0.144169  0.070687  1
  O  O15  1  0.252952  0.003133  0.743995  1
  O  O16  1  0.232585  0.285306  0.907985  1
  O  O17  1  0.249834  0.716276  0.611912  1
  O  O18  1  0.760122  0.151832  0.836563  1
  O  O19  1  0.761789  0.418743  0.969974  1
  O  O20  1  0.240254  0.152205  0.313437  1
  O  O21  1  0.238373  0.418822  0.445170  1
  O  O22  1  0.744875  0.003497  0.256066  1
  O  O23  1  0.743207  0.569007  0.539879  1
  O  O24  1  0.250992  0.855775  0.182482  1
  O  O25  1  0.768141  0.286165  0.375199  1
  O  O26  1  0.255060  0.568347  0.025601  1
  O  O27  1  0.745604  0.856118  0.670138  1
  O  O28  1  0.744178  0.716896  0.099748  1
