# generated using pymatgen
data_Li4V3O8
_symmetry_space_group_name_H-M   'P 1'
_cell_length_a   4.02228058
_cell_length_b   6.22566212
_cell_length_c   11.78693077
_cell_angle_alpha   99.99209463
_cell_angle_beta   90.00000000
_cell_angle_gamma   90.00000000
_symmetry_Int_Tables_number   1
_chemical_formula_structural   Li4V3O8
_chemical_formula_sum   'Li8 V6 O16'
_cell_volume   290.68368832
_cell_formula_units_Z   2
loop_
 _symmetry_equiv_pos_site_id
 _symmetry_equiv_pos_as_xyz
  1  'x, y, z'
loop_
 _atom_site_type_symbol
 _atom_site_label
 _atom_site_symmetry_multiplicity
 _atom_site_fract_x
 _atom_site_fract_y
 _atom_site_fract_z
 _atom_site_occupancy
  Li  Li1  1  0.750000  0.812949  0.404702  1
  Li  Li2  1  0.250001  0.187051  0.595298  1
  Li  Li3  1  0.750000  0.990660  0.683326  1
  Li  Li4  1  0.250001  0.548944  0.305734  1
  Li  Li5  1  0.750000  0.571557  0.939175  1
  Li  Li6  1  0.250001  0.428444  0.060824  1
  Li  Li7  1  0.250001  0.009340  0.316673  1
  Li  Li8  1  0.750000  0.451056  0.694266  1
  O  O9  1  0.250001  0.517784  0.690780  1
  O  O10  1  0.750000  0.482216  0.309220  1
  O  O11  1  0.250001  0.189749  0.177258  1
  O  O12  1  0.750000  0.810249  0.822742  1
  O  O13  1  0.250001  0.371011  0.453705  1
  O  O14  1  0.750000  0.628989  0.546295  1
  O  O15  1  0.250001  0.055527  0.933100  1
  O  O16  1  0.750000  0.359199  0.056849  1
  O  O17  1  0.250001  0.926016  0.682651  1
  O  O18  1  0.750000  0.073984  0.317349  1
  O  O19  1  0.250001  0.727794  0.180425  1
  O  O20  1  0.750000  0.272206  0.819575  1
  O  O21  1  0.250001  0.818965  0.437792  1
  O  O22  1  0.750000  0.181035  0.562209  1
  O  O23  1  0.250001  0.640802  0.943151  1
  O  O24  1  0.750000  0.944474  0.066899  1
  V  V25  1  0.750000  0.230350  0.191561  1
  V  V26  1  0.250001  0.769650  0.808439  1
  V  V27  1  0.750000  0.112790  0.922813  1
  V  V28  1  0.250001  0.887210  0.077187  1
  V  V29  1  0.750000  0.329870  0.446576  1
  V  V30  1  0.250001  0.670131  0.553425  1
