# generated using pymatgen
data_Li8V11O22
_symmetry_space_group_name_H-M   'P 1'
_cell_length_a   10.34383177
_cell_length_b   5.18336864
_cell_length_c   8.92672783
_cell_angle_alpha   84.98161251
_cell_angle_beta   62.23263694
_cell_angle_gamma   80.29161250
_symmetry_Int_Tables_number   1
_chemical_formula_structural   Li8V11O22
_chemical_formula_sum   'Li8 V11 O22'
_cell_volume   417.41352239
_cell_formula_units_Z   1
loop_
 _symmetry_equiv_pos_site_id
 _symmetry_equiv_pos_as_xyz
  1  'x, y, z'
loop_
 _atom_site_type_symbol
 _atom_site_label
 _atom_site_symmetry_multiplicity
 _atom_site_fract_x
 _atom_site_fract_y
 _atom_site_fract_z
 _atom_site_occupancy
  Li  Li1  1  0.005582  0.988870  0.004214  1
  Li  Li2  1  0.176235  0.920223  0.177604  1
  Li  Li3  1  0.274290  0.358278  0.274170  1
  Li  Li4  1  0.363371  0.802237  0.372219  1
  Li  Li5  1  0.545172  0.727088  0.548648  1
  Li  Li6  1  0.636649  0.182004  0.633170  1
  Li  Li7  1  0.818449  0.106854  0.809601  1
  Li  Li8  1  0.907529  0.550812  0.907650  1
  V  V9  1  0.038469  0.731184  0.553057  1
  V  V10  1  0.504844  0.995113  0.995273  1
  V  V11  1  0.590909  0.454538  0.090911  1
  V  V12  1  0.143349  0.177901  0.628765  1
  V  V13  1  0.676976  0.913965  0.186542  1
  V  V14  1  0.227200  0.631526  0.730105  1
  V  V15  1  0.313095  0.101906  0.818826  1
  V  V16  1  0.772023  0.359808  0.269143  1
  V  V17  1  0.868722  0.807193  0.362995  1
  V  V18  1  0.409799  0.549287  0.912664  1
  V  V19  1  0.954620  0.277554  0.451712  1
  O  O20  1  0.316377  0.222065  0.025736  1
  O  O21  1  0.050829  0.608926  0.332472  1
  O  O22  1  0.399166  0.673110  0.126704  1
  O  O23  1  0.149594  0.044205  0.416724  1
  O  O24  1  0.032217  0.864904  0.765096  1
  O  O25  1  0.232008  0.508137  0.518182  1
  O  O26  1  0.490775  0.140983  0.206672  1
  O  O27  1  0.329409  0.945703  0.608985  1
  O  O28  1  0.130987  0.300176  0.849354  1
  O  O29  1  0.574858  0.594620  0.295047  1
  O  O30  1  0.782660  0.235962  0.055109  1
  O  O31  1  0.682760  0.032066  0.396640  1
  O  O32  1  0.217788  0.791809  0.936757  1
  O  O33  1  0.865442  0.687031  0.156071  1
  O  O34  1  0.420932  0.410501  0.705521  1
  O  O35  1  0.499053  0.877025  0.785179  1
  O  O36  1  0.964031  0.117283  0.245059  1
  O  O37  1  0.760874  0.498596  0.476297  1
  O  O38  1  0.606960  0.314469  0.886772  1
  O  O39  1  0.852410  0.963399  0.572833  1
  O  O40  1  0.691052  0.768096  0.975149  1
  O  O41  1  0.949811  0.400955  0.663646  1
