# generated using pymatgen
data_KC
_symmetry_space_group_name_H-M   'P 1'
_cell_length_a   4.36432908
_cell_length_b   4.36432908
_cell_length_c   7.57270921
_cell_angle_alpha   90.09955317
_cell_angle_beta   106.74362793
_cell_angle_gamma   119.80897627
_symmetry_Int_Tables_number   1
_chemical_formula_structural   KC
_chemical_formula_sum   'K2 C2'
_cell_volume   118.01150756
_cell_formula_units_Z   2
loop_
 _symmetry_equiv_pos_site_id
 _symmetry_equiv_pos_as_xyz
  1  'x, y, z'
loop_
 _atom_site_type_symbol
 _atom_site_label
 _atom_site_symmetry_multiplicity
 _atom_site_fract_x
 _atom_site_fract_y
 _atom_site_fract_z
 _atom_site_occupancy
  K  K1  1  0.000229  0.499236  0.499304  1
  K  K2  1  0.000067  0.999075  0.999304  1
  C  C3  1  0.495556  0.746549  0.250696  1
  C  C4  1  0.504148  0.255140  0.750696  1
