# generated using pymatgen
data_LiVO3
_symmetry_space_group_name_H-M   'P 1'
_cell_length_a   5.94367310
_cell_length_b   6.77240003
_cell_length_c   6.77240003
_cell_angle_alpha   79.16421405
_cell_angle_beta   73.60027334
_cell_angle_gamma   73.60027340
_symmetry_Int_Tables_number   1
_chemical_formula_structural   LiVO3
_chemical_formula_sum   'Li4 V4 O12'
_cell_volume   249.13556569
_cell_formula_units_Z   4
loop_
 _symmetry_equiv_pos_site_id
 _symmetry_equiv_pos_as_xyz
  1  'x, y, z'
loop_
 _atom_site_type_symbol
 _atom_site_label
 _atom_site_symmetry_multiplicity
 _atom_site_fract_x
 _atom_site_fract_y
 _atom_site_fract_z
 _atom_site_occupancy
  Li  Li1  1  0.750000  0.917899  0.082101  1
  Li  Li2  1  0.250000  0.082101  0.917899  1
  Li  Li3  1  0.750000  0.272400  0.727600  1
  Li  Li4  1  0.250000  0.727600  0.272400  1
  O  O5  1  0.586084  0.615639  0.678727  1
  O  O6  1  0.413916  0.384361  0.321273  1
  O  O7  1  0.086084  0.678727  0.615639  1
  O  O8  1  0.165660  0.778095  0.995023  1
  O  O9  1  0.834340  0.221905  0.004977  1
  O  O10  1  0.665660  0.995023  0.778095  1
  O  O11  1  0.715170  0.624777  0.087507  1
  O  O12  1  0.334340  0.004977  0.221905  1
  O  O13  1  0.215170  0.087507  0.624777  1
  O  O14  1  0.784830  0.912493  0.375223  1
  O  O15  1  0.284830  0.375223  0.912493  1
  O  O16  1  0.913916  0.321273  0.384361  1
  V  V17  1  0.729076  0.380728  0.193713  1
  V  V18  1  0.229076  0.193713  0.380728  1
  V  V19  1  0.270924  0.619272  0.806287  1
  V  V20  1  0.770924  0.806287  0.619272  1
