# generated using pymatgen
data_LiV6O15
_symmetry_space_group_name_H-M   'P 1'
_cell_length_a   10.27280981
_cell_length_b   7.30919015
_cell_length_c   15.37879709
_cell_angle_alpha   89.99714504
_cell_angle_beta   72.82778393
_cell_angle_gamma   89.99797685
_symmetry_Int_Tables_number   1
_chemical_formula_structural   LiV6O15
_chemical_formula_sum   'Li4 V24 O60'
_cell_volume   1103.25511683
_cell_formula_units_Z   4
loop_
 _symmetry_equiv_pos_site_id
 _symmetry_equiv_pos_as_xyz
  1  'x, y, z'
loop_
 _atom_site_type_symbol
 _atom_site_label
 _atom_site_symmetry_multiplicity
 _atom_site_fract_x
 _atom_site_fract_y
 _atom_site_fract_z
 _atom_site_occupancy
  Li  Li1  1  0.662264  0.496060  0.987881  1
  Li  Li2  1  0.837815  0.253923  0.512126  1
  Li  Li3  1  0.162152  0.753857  0.487979  1
  Li  Li4  1  0.337714  0.996138  0.012103  1
  V  V5  1  0.876486  0.497979  0.710330  1
  V  V6  1  0.873627  0.001891  0.710574  1
  V  V7  1  0.998445  0.499878  0.122087  1
  V  V8  1  0.994039  0.999738  0.115048  1
  V  V9  1  0.626280  0.748085  0.789451  1
  V  V10  1  0.623342  0.252034  0.789698  1
  V  V11  1  0.769410  0.004408  0.337946  1
  V  V12  1  0.766541  0.497809  0.339195  1
  V  V13  1  0.730493  0.745629  0.162047  1
  V  V14  1  0.733366  0.252146  0.160762  1
  V  V15  1  0.498476  0.749966  0.622074  1
  V  V16  1  0.494141  0.250486  0.615026  1
  V  V17  1  0.505920  0.750198  0.385006  1
  V  V18  1  0.501534  0.250182  0.378013  1
  V  V19  1  0.266618  0.752290  0.839115  1
  V  V20  1  0.269430  0.245525  0.837928  1
  V  V21  1  0.233426  0.997736  0.660802  1
  V  V22  1  0.230503  0.504371  0.662084  1
  V  V23  1  0.376600  0.751974  0.210319  1
  V  V24  1  0.373761  0.248140  0.210571  1
  V  V25  1  0.005836  0.499629  0.885007  1
  V  V26  1  0.001440  -0.000073  0.877986  1
  V  V27  1  0.126270  0.501873  0.289411  1
  V  V28  1  0.123417  0.998021  0.289689  1
  O  O29  1  0.839300  0.999178  0.890487  1
  O  O30  1  0.843182  0.500485  0.888616  1
  O  O31  1  0.917842  0.486321  0.600458  1
  O  O32  1  0.915367  0.014301  0.600696  1
  O  O33  1  0.828010  0.251079  0.744794  1
  O  O34  1  0.830125  0.748941  0.739374  1
  O  O35  1  0.966241  0.501242  0.262123  1
  O  O36  1  0.958759  0.999203  0.265383  1
  O  O37  1  0.940577  0.251892  0.133847  1
  O  O38  1  0.940298  0.747271  0.133531  1
  O  O39  1  0.671938  0.498890  0.755241  1
  O  O40  1  0.669845  0.001081  0.760633  1
  O  O41  1  0.789343  0.029895  0.438491  1
  O  O42  1  0.791977  0.463868  0.438649  1
  O  O43  1  0.584672  0.735837  0.899331  1
  O  O44  1  0.582160  0.263581  0.899569  1
  O  O45  1  0.660600  0.750870  0.609565  1
  O  O46  1  0.656789  0.249494  0.611436  1
  O  O47  1  0.735567  0.759410  0.322825  1
  O  O48  1  0.739284  0.241083  0.306795  1
  O  O49  1  0.760631  0.508857  0.193160  1
  O  O50  1  0.764426  0.990650  0.177191  1
  O  O51  1  0.466261  0.748725  0.762176  1
  O  O52  1  0.458736  0.250813  0.765416  1
  O  O53  1  0.440356  0.502700  0.633453  1
  O  O54  1  0.440424  0.998156  0.633864  1
  O  O55  1  0.707983  0.286087  0.061299  1
  O  O56  1  0.710644  0.720167  0.061471  1
  O  O57  1  0.498849  0.749986  0.500038  1
  O  O58  1  0.500971  0.249948  0.500031  1
  O  O59  1  0.289386  0.220050  0.938518  1
  O  O60  1  0.292062  0.786113  0.938556  1
  O  O61  1  0.559448  0.498106  0.366109  1
  O  O62  1  0.559775  0.002714  0.366433  1
  O  O63  1  0.541349  0.750859  0.234574  1
  O  O64  1  0.533827  0.248696  0.237812  1
  O  O65  1  0.239252  0.008888  0.806659  1
  O  O66  1  0.235524  0.490678  0.822902  1
  O  O67  1  0.264734  0.259042  0.677227  1
  O  O68  1  0.260929  0.741506  0.693209  1
  O  O69  1  0.343298  0.749473  0.388615  1
  O  O70  1  0.339414  0.250887  0.390489  1
  O  O71  1  0.417846  0.763590  0.100461  1
  O  O72  1  0.415356  0.235853  0.100675  1
  O  O73  1  0.207989  0.963812  0.561380  1
  O  O74  1  0.210632  0.529892  0.561469  1
  O  O75  1  0.330184  0.501102  0.239410  1
  O  O76  1  0.328072  0.998867  0.244789  1
  O  O77  1  0.059379  0.751826  0.866101  1
  O  O78  1  0.059674  0.247316  0.866438  1
  O  O79  1  0.041366  0.499195  0.734596  1
  O  O80  1  0.033913  0.001294  0.737777  1
  O  O81  1  0.171983  0.751128  0.255177  1
  O  O82  1  0.169870  0.248911  0.260599  1
  O  O83  1  0.084714  0.514237  0.399293  1
  O  O84  1  0.082212  0.986345  0.399531  1
  O  O85  1  0.160597  0.499126  0.109584  1
  O  O86  1  0.156672  0.000527  0.111400  1
  O  O87  1  0.001114  0.000046  0.000001  1
  O  O88  1  0.998924  0.500014  0.000013  1
