# generated using pymatgen
data_LiV4O10
_symmetry_space_group_name_H-M   'P 1'
_cell_length_a   10.32761365
_cell_length_b   8.09233978
_cell_length_c   14.68995814
_cell_angle_alpha   76.85554001
_cell_angle_beta   90.04222137
_cell_angle_gamma   108.41220502
_symmetry_Int_Tables_number   1
_chemical_formula_structural   LiV4O10
_chemical_formula_sum   'Li6 V24 O60'
_cell_volume   1130.97678342
_cell_formula_units_Z   6
loop_
 _symmetry_equiv_pos_site_id
 _symmetry_equiv_pos_as_xyz
  1  'x, y, z'
loop_
 _atom_site_type_symbol
 _atom_site_label
 _atom_site_symmetry_multiplicity
 _atom_site_fract_x
 _atom_site_fract_y
 _atom_site_fract_z
 _atom_site_occupancy
  Li  Li1  1  0.674240  0.885930  0.889918  1
  Li  Li2  1  0.677393  0.881736  0.139390  1
  Li  Li3  1  0.675139  0.885304  0.390079  1
  Li  Li4  1  0.325760  0.114070  0.860082  1
  Li  Li5  1  0.322606  0.118264  0.610610  1
  Li  Li6  1  0.324861  0.114696  0.359921  1
  V  V7  1  0.897706  0.329296  0.834220  1
  V  V8  1  0.895768  0.324793  0.584351  1
  V  V9  1  0.897890  0.328468  0.333624  1
  V  V10  1  0.898140  0.331900  0.083518  1
  V  V11  1  0.889357  0.765239  0.279935  1
  V  V12  1  0.885786  0.766047  0.779712  1
  V  V13  1  0.892620  0.770963  0.028045  1
  V  V14  1  0.890599  0.771509  0.528397  1
  V  V15  1  0.592869  0.427716  0.321767  1
  V  V16  1  0.593445  0.431767  0.571566  1
  V  V17  1  0.593306  0.430560  0.820674  1
  V  V18  1  0.589065  0.420669  0.072613  1
  V  V19  1  0.406694  0.569440  0.929326  1
  V  V20  1  0.407131  0.572284  0.428233  1
  V  V21  1  0.410935  0.579331  0.677387  1
  V  V22  1  0.406555  0.568233  0.178434  1
  V  V23  1  0.109401  0.228491  0.221603  1
  V  V24  1  0.110643  0.234761  0.470065  1
  V  V25  1  0.114214  0.233953  0.970288  1
  V  V26  1  0.107380  0.229037  0.721955  1
  V  V27  1  0.101860  0.668100  0.666481  1
  V  V28  1  0.104232  0.675207  0.165649  1
  V  V29  1  0.102294  0.670704  0.915780  1
  V  V30  1  0.102110  0.671532  0.416376  1
  O  O31  1  0.950082  0.368379  0.700531  1
  O  O32  1  0.953223  0.375533  0.456740  1
  O  O33  1  0.949133  0.367693  0.199745  1
  O  O34  1  0.953229  0.378634  0.956637  1
  O  O35  1  0.781556  0.129060  0.862339  1
  O  O36  1  0.781007  0.128588  0.359342  1
  O  O37  1  0.783380  0.127671  0.607352  1
  O  O38  1  0.785667  0.130533  0.106053  1
  O  O39  1  0.924794  0.734517  0.658157  1
  O  O40  1  0.926822  0.735518  0.157527  1
  O  O41  1  0.926885  0.734313  0.908414  1
  O  O42  1  0.927068  0.734089  0.408643  1
  O  O43  1  0.774641  0.477819  0.815058  1
  O  O44  1  0.776680  0.471052  0.566338  1
  O  O45  1  0.774103  0.477390  0.315375  1
  O  O46  1  0.776380  0.471550  0.066107  1
  O  O47  1  0.732665  0.787148  0.785832  1
  O  O48  1  0.734556  0.784078  0.518009  1
  O  O49  1  0.734024  0.791923  0.275712  1
  O  O50  1  0.735849  0.792266  0.025926  1
  O  O51  1  0.524617  0.213947  0.599164  1
  O  O52  1  0.527020  0.209519  0.350069  1
  O  O53  1  0.527075  0.211992  0.846241  1
  O  O54  1  0.530423  0.205019  0.099852  1
  O  O55  1  0.574995  0.493827  0.438893  1
  O  O56  1  0.573445  0.489019  0.939925  1
  O  O57  1  0.578189  0.497946  0.686579  1
  O  O58  1  0.575240  0.490498  0.188302  1
  O  O59  1  0.426555  0.510981  0.810075  1
  O  O60  1  0.424760  0.509502  0.561698  1
  O  O61  1  0.425005  0.506173  0.311107  1
  O  O62  1  0.421811  0.502054  0.063421  1
  O  O63  1  0.469577  0.794981  0.650148  1
  O  O64  1  0.472980  0.790481  0.399931  1
  O  O65  1  0.472925  0.788008  0.903759  1
  O  O66  1  0.475384  0.786053  0.150836  1
  O  O67  1  0.264151  0.207734  0.724074  1
  O  O68  1  0.265976  0.208077  0.474288  1
  O  O69  1  0.265444  0.215922  0.231991  1
  O  O70  1  0.267335  0.212852  0.964168  1
  O  O71  1  0.223620  0.528450  0.683893  1
  O  O72  1  0.225897  0.522610  0.434625  1
  O  O73  1  0.225359  0.522181  0.934942  1
  O  O74  1  0.223320  0.528948  0.183662  1
  O  O75  1  0.073115  0.265687  0.841586  1
  O  O76  1  0.072932  0.265911  0.341357  1
  O  O77  1  0.073178  0.264482  0.592473  1
  O  O78  1  0.075206  0.265483  0.091843  1
  O  O79  1  0.214333  0.869467  0.643947  1
  O  O80  1  0.216620  0.872329  0.142648  1
  O  O81  1  0.218444  0.870940  0.887661  1
  O  O82  1  0.218993  0.871412  0.390658  1
  O  O83  1  0.997102  0.001241  0.499262  1
  O  O84  1  0.998440  0.999603  0.750758  1
  O  O85  1  0.001560  0.000396  0.999242  1
  O  O86  1  0.002898  0.998759  0.250738  1
  O  O87  1  0.046777  0.624467  0.293260  1
  O  O88  1  0.046771  0.621366  0.793363  1
  O  O89  1  0.050867  0.632307  0.550255  1
  O  O90  1  0.049918  0.631621  0.049469  1
