# generated using pymatgen
data_LiV2O5
_symmetry_space_group_name_H-M   'P 1'
_cell_length_a   3.63505774
_cell_length_b   9.83973350
_cell_length_c   11.02289201
_cell_angle_alpha   90.00000000
_cell_angle_beta   90.00000000
_cell_angle_gamma   90.00000000
_symmetry_Int_Tables_number   1
_chemical_formula_structural   LiV2O5
_chemical_formula_sum   'Li4 V8 O20'
_cell_volume   394.26679501
_cell_formula_units_Z   4
loop_
 _symmetry_equiv_pos_site_id
 _symmetry_equiv_pos_as_xyz
  1  'x, y, z'
loop_
 _atom_site_type_symbol
 _atom_site_label
 _atom_site_symmetry_multiplicity
 _atom_site_fract_x
 _atom_site_fract_y
 _atom_site_fract_z
 _atom_site_occupancy
  Li  Li1  1  0.750000  0.840590  0.774621  1
  Li  Li2  1  0.250001  0.159409  0.225379  1
  Li  Li3  1  0.750000  0.340590  0.725379  1
  Li  Li4  1  0.250001  0.659410  0.274620  1
  O  O5  1  0.750000  0.520466  0.226193  1
  O  O6  1  0.250001  0.942602  0.454254  1
  O  O7  1  0.750000  0.057398  0.545746  1
  O  O8  1  0.250001  0.442602  0.045746  1
  O  O9  1  0.750000  0.557398  0.954254  1
  O  O10  1  0.250001  0.071808  0.049528  1
  O  O11  1  0.750000  0.928192  0.950472  1
  O  O12  1  0.250001  0.571808  0.450472  1
  O  O13  1  0.750000  0.759576  0.367710  1
  O  O14  1  0.250001  0.240423  0.632290  1
  O  O15  1  0.750000  0.259576  0.132290  1
  O  O16  1  0.250001  0.740423  0.867710  1
  O  O17  1  0.750000  0.428192  0.549528  1
  O  O18  1  0.250001  0.479534  0.773807  1
  O  O19  1  0.250001  0.776406  0.126420  1
  O  O20  1  0.250001  0.979534  0.726193  1
  O  O21  1  0.750000  0.723593  0.626420  1
  O  O22  1  0.250001  0.276407  0.373580  1
  O  O23  1  0.750000  0.223593  0.873580  1
  O  O24  1  0.750000  0.020466  0.273807  1
  V  V25  1  0.750000  0.624866  0.504634  1
  V  V26  1  0.250001  0.566677  0.901323  1
  V  V27  1  0.750000  0.433323  0.098677  1
  V  V28  1  0.250001  0.066677  0.598677  1
  V  V29  1  0.750000  0.933323  0.401323  1
  V  V30  1  0.250001  0.875133  0.004634  1
  V  V31  1  0.750000  0.124867  0.995366  1
  V  V32  1  0.250001  0.375133  0.495365  1
