# generated using pymatgen
data_Li(CoO2)2
_symmetry_space_group_name_H-M   'P 1'
_cell_length_a   8.05765513
_cell_length_b   8.06588165
_cell_length_c   8.06780123
_cell_angle_alpha   90.05901731
_cell_angle_beta   90.02203501
_cell_angle_gamma   90.02985869
_symmetry_Int_Tables_number   1
_chemical_formula_structural   Li(CoO2)2
_chemical_formula_sum   'Li8 Co16 O32'
_cell_volume   524.34289655
_cell_formula_units_Z   8
loop_
 _symmetry_equiv_pos_site_id
 _symmetry_equiv_pos_as_xyz
  1  'x, y, z'
loop_
 _atom_site_type_symbol
 _atom_site_label
 _atom_site_symmetry_multiplicity
 _atom_site_fract_x
 _atom_site_fract_y
 _atom_site_fract_z
 _atom_site_occupancy
  Li  Li1  1  -0.000992  -0.002879  0.000353  1
  Li  Li2  1  0.251772  0.250825  0.247911  1
  Li  Li3  1  0.252077  0.749573  0.748801  1
  Li  Li4  1  0.499210  -0.003933  0.501490  1
  Li  Li5  1  0.498427  0.502334  0.001685  1
  Li  Li6  1  0.747822  0.249995  0.750818  1
  Li  Li7  1  0.749079  0.750315  0.247381  1
  Li  Li8  1  0.000552  0.503794  0.500514  1
  Co  Co9  1  0.124276  0.125295  0.624417  1
  Co  Co10  1  0.123440  0.376266  0.875472  1
  Co  Co11  1  0.126782  0.873987  0.372244  1
  Co  Co12  1  0.125699  0.625458  0.125558  1
  Co  Co13  1  0.374732  0.374488  0.624284  1
  Co  Co14  1  0.375217  0.123039  0.877610  1
  Co  Co15  1  0.375812  0.625164  0.374845  1
  Co  Co16  1  0.375782  0.874312  0.124731  1
  Co  Co17  1  0.624094  0.375615  0.375757  1
  Co  Co18  1  0.625456  0.123426  0.124809  1
  Co  Co19  1  0.625257  0.626306  0.626238  1
  Co  Co20  1  0.625453  0.874421  0.875327  1
  Co  Co21  1  0.874087  0.124663  0.374422  1
  Co  Co22  1  0.875717  0.377105  0.125518  1
  Co  Co23  1  0.874892  0.874962  0.625406  1
  Co  Co24  1  0.874736  0.625454  0.873373  1
  O  O25  1  0.109464  0.111932  0.387274  1
  O  O26  1  0.116963  0.892661  0.609151  1
  O  O27  1  0.115585  0.607205  0.888773  1
  O  O28  1  0.134140  0.141035  0.860993  1
  O  O29  1  0.108315  0.386757  0.111882  1
  O  O30  1  0.135051  0.358372  0.638091  1
  O  O31  1  0.139620  0.642128  0.361802  1
  O  O32  1  0.136021  0.861473  0.141182  1
  O  O33  1  0.356805  0.133737  0.641148  1
  O  O34  1  0.357166  0.360810  0.862552  1
  O  O35  1  0.361163  0.638641  0.139938  1
  O  O36  1  0.390701  0.608647  0.613981  1
  O  O37  1  0.359266  0.861168  0.362451  1
  O  O38  1  0.391362  0.386116  0.388477  1
  O  O39  1  0.390785  0.115075  0.108103  1
  O  O40  1  0.388006  0.892106  0.885938  1
  O  O41  1  0.610411  0.388544  0.609423  1
  O  O42  1  0.616562  0.609468  0.390363  1
  O  O43  1  0.612035  0.889441  0.111445  1
  O  O44  1  0.641118  0.363746  0.141494  1
  O  O45  1  0.609030  0.111145  0.889825  1
  O  O46  1  0.638962  0.140025  0.366056  1
  O  O47  1  0.640417  0.859586  0.637044  1
  O  O48  1  0.637503  0.636145  0.857835  1
  O  O49  1  0.860133  0.360961  0.363348  1
  O  O50  1  0.865889  0.141348  0.142510  1
  O  O51  1  0.862236  0.860535  0.859721  1
  O  O52  1  0.889613  0.891634  0.385188  1
  O  O53  1  0.859525  0.641244  0.636777  1
  O  O54  1  0.890565  0.117177  0.607976  1
  O  O55  1  0.891048  0.384382  0.890779  1
  O  O56  1  0.885165  0.606910  0.109656  1
