# generated using pymatgen
data_Li4V3O8
_symmetry_space_group_name_H-M   'P 1'
_cell_length_a   10.31024835
_cell_length_b   10.31089224
_cell_length_c   14.61570273
_cell_angle_alpha   19.08375965
_cell_angle_beta   19.08379155
_cell_angle_gamma   32.89681971
_symmetry_Int_Tables_number   1
_chemical_formula_structural   Li4V3O8
_chemical_formula_sum   'Li4 V3 O8'
_cell_volume   143.83514844
_cell_formula_units_Z   1
loop_
 _symmetry_equiv_pos_site_id
 _symmetry_equiv_pos_as_xyz
  1  'x, y, z'
loop_
 _atom_site_type_symbol
 _atom_site_label
 _atom_site_symmetry_multiplicity
 _atom_site_fract_x
 _atom_site_fract_y
 _atom_site_fract_z
 _atom_site_occupancy
  Li  Li1  1  -0.000044  0.000040  0.000004  1
  Li  Li2  1  -0.000021  0.500058  0.499996  1
  Li  Li3  1  0.500063  0.000003  0.499960  1
  Li  Li4  1  0.499931  0.499933  0.500099  1
  V  V5  1  0.000225  0.499839  -0.000118  1
  V  V6  1  0.499409  -0.000113  0.000458  1
  V  V7  1  0.500684  0.500252  -0.000647  1
  O  O8  1  0.999946  0.999961  0.254416  1
  O  O9  1  0.032585  0.494158  0.245062  1
  O  O10  1  0.461324  0.967225  0.310560  1
  O  O11  1  0.000058  0.000042  0.745677  1
  O  O12  1  0.505880  0.538350  0.233410  1
  O  O13  1  0.967336  0.505932  0.754887  1
  O  O14  1  0.538512  0.032723  0.689619  1
  O  O15  1  0.494111  0.461596  0.766618  1
