# generated using pymatgen
data_Li7W5O16
_symmetry_space_group_name_H-M   'P 1'
_cell_length_a   6.05342957
_cell_length_b   6.09647455
_cell_length_c   9.92142411
_cell_angle_alpha   89.80663276
_cell_angle_beta   90.16178368
_cell_angle_gamma   120.33276060
_symmetry_Int_Tables_number   1
_chemical_formula_structural   Li7W5O16
_chemical_formula_sum   'Li7 W5 O16'
_cell_volume   316.02107021
_cell_formula_units_Z   1
loop_
 _symmetry_equiv_pos_site_id
 _symmetry_equiv_pos_as_xyz
  1  'x, y, z'
loop_
 _atom_site_type_symbol
 _atom_site_label
 _atom_site_symmetry_multiplicity
 _atom_site_fract_x
 _atom_site_fract_y
 _atom_site_fract_z
 _atom_site_occupancy
  Li  Li1  1  0.166718  0.825739  0.212736  1
  Li  Li2  1  0.347170  0.677530  0.912757  1
  Li  Li3  1  0.008502  0.001362  0.997389  1
  Li  Li4  1  0.033165  0.019943  0.479103  1
  Li  Li5  1  0.167649  0.340187  0.211921  1
  Li  Li6  1  0.328313  0.167166  0.714999  1
  Li  Li7  1  0.661640  0.329679  0.400593  1
  W  W8  1  0.303768  0.644296  0.475137  1
  W  W9  1  0.653204  0.825770  0.221797  1
  W  W10  1  0.661609  0.327527  0.993920  1
  W  W11  1  0.825257  0.661277  0.712058  1
  W  W12  1  0.828573  0.174431  0.712106  1
  O  O13  1  0.134171  0.797313  0.601473  1
  O  O14  1  0.033636  0.519905  0.359102  1
  O  O15  1  0.363564  0.682406  0.109078  1
  O  O16  1  0.989904  0.993342  0.292292  1
  O  O17  1  0.993144  0.997467  0.810927  1
  O  O18  1  0.148315  0.325314  0.591330  1
  O  O19  1  0.502507  0.964727  0.355161  1
  O  O20  1  0.498039  0.530462  0.353040  1
  O  O21  1  0.350078  0.178239  0.071845  1
  O  O22  1  0.654394  0.818208  0.599146  1
  O  O23  1  0.547455  0.500270  0.843574  1
  O  O24  1  0.542014  0.053182  0.851254  1
  O  O25  1  0.658842  0.333448  0.603415  1
  O  O26  1  0.811390  0.647320  0.085585  1
  O  O27  1  0.971665  0.495558  0.847340  1
  O  O28  1  0.815314  0.168232  0.088759  1
