# generated using pymatgen
data_Li17(WO3)19
_symmetry_space_group_name_H-M   'P 1'
_cell_length_a   75.12164536
_cell_length_b   16.30261165
_cell_length_c   8.83266476
_cell_angle_alpha   29.83704322
_cell_angle_beta   26.62556057
_cell_angle_gamma   14.01120916
_symmetry_Int_Tables_number   1
_chemical_formula_structural   Li17(WO3)19
_chemical_formula_sum   'Li17 W19 O57'
_cell_volume   1173.70995096
_cell_formula_units_Z   1
loop_
 _symmetry_equiv_pos_site_id
 _symmetry_equiv_pos_as_xyz
  1  'x, y, z'
loop_
 _atom_site_type_symbol
 _atom_site_label
 _atom_site_symmetry_multiplicity
 _atom_site_fract_x
 _atom_site_fract_y
 _atom_site_fract_z
 _atom_site_occupancy
  Li  Li1  1  0.051817  0.000355  0.004883  1
  Li  Li2  1  0.105382  0.999703  0.001863  1
  Li  Li3  1  0.158240  0.000018  0.995119  1
  Li  Li4  1  0.211740  0.997181  0.995500  1
  Li  Li5  1  0.261450  0.005162  0.004929  1
  Li  Li6  1  0.315056  0.002049  0.004346  1
  Li  Li7  1  0.368040  0.000657  -0.000088  1
  Li  Li8  1  0.422091  0.997431  0.997249  1
  Li  Li9  1  0.527408  0.996715  0.998481  1
  Li  Li10  1  0.579544  0.997138  0.999190  1
  Li  Li11  1  0.631712  0.998856  0.003001  1
  Li  Li12  1  0.685582  0.996420  0.994289  1
  Li  Li13  1  0.737159  0.999945  0.996223  1
  Li  Li14  1  0.788417  0.003504  0.003766  1
  Li  Li15  1  0.840905  0.002555  0.004188  1
  Li  Li16  1  0.893920  0.004162  0.002020  1
  Li  Li17  1  0.946884  0.002224  0.996340  1
  W  W18  1  0.025928  0.503334  0.497557  1
  W  W19  1  0.078427  0.501346  0.502844  1
  W  W20  1  0.131399  0.503190  0.497680  1
  W  W21  1  0.183668  0.499353  0.504409  1
  W  W22  1  0.236909  0.499682  0.499753  1
  W  W23  1  0.289725  0.501471  0.496863  1
  W  W24  1  0.341963  0.498727  0.501958  1
  W  W25  1  0.394929  0.500386  0.497640  1
  W  W26  1  0.447858  0.496580  0.503336  1
  W  W27  1  0.499239  0.504391  0.500317  1
  W  W28  1  0.552251  0.502183  0.498670  1
  W  W29  1  0.604275  0.503674  0.503654  1
  W  W30  1  0.657603  0.499102  0.502510  1
  W  W31  1  0.710579  0.499343  0.501810  1
  W  W32  1  0.763291  0.500363  0.499320  1
  W  W33  1  0.816125  0.500692  0.495156  1
  W  W34  1  0.869080  0.497600  0.495604  1
  W  W35  1  0.920921  0.500435  0.501027  1
  W  W36  1  0.974716  0.493766  0.501848  1
  O  O37  1  0.028521  0.986613  0.498833  1
  O  O38  1  0.079813  0.005581  0.482828  1
  O  O39  1  0.024679  0.506276  0.000273  1
  O  O40  1  0.998865  0.505829  0.502399  1
  O  O41  1  0.128385  0.014076  0.502345  1
  O  O42  1  0.079162  0.489998  0.013362  1
  O  O43  1  0.051313  0.500584  0.508295  1
  O  O44  1  0.134866  0.494574  0.987715  1
  O  O45  1  0.182566  0.004679  0.504887  1
  O  O46  1  0.108387  0.484386  0.498286  1
  O  O47  1  0.237128  0.999321  0.500155  1
  O  O48  1  0.186276  0.489553  0.000243  1
  O  O49  1  0.162457  0.486088  0.485076  1
  O  O50  1  0.290266  0.999465  0.495567  1
  O  O51  1  0.236967  0.500297  0.998420  1
  O  O52  1  0.211607  0.501742  0.491466  1
  O  O53  1  0.287756  0.509477  0.999288  1
  O  O54  1  0.344861  0.986769  0.497957  1
  O  O55  1  0.262318  0.498369  0.506082  1
  O  O56  1  0.394821  0.990595  0.516270  1
  O  O57  1  0.338510  0.506488  0.013993  1
  O  O58  1  0.311422  0.513883  0.513792  1
  O  O59  1  0.445100  0.014328  0.501496  1
  O  O60  1  0.393695  0.512459  0.987832  1
  O  O61  1  0.366798  0.509241  0.503107  1
  O  O62  1  0.448880  0.493751  0.001362  1
  O  O63  1  0.502577  0.989198  0.486347  1
  O  O64  1  0.421448  0.499659  0.496035  1
  O  O65  1  0.497825  0.502830  0.012720  1
  O  O66  1  0.550609  0.013328  0.494590  1
  O  O67  1  0.472902  0.501600  0.498545  1
  O  O68  1  0.553418  0.490571  0.001082  1
  O  O69  1  0.603336  0.011250  0.494897  1
  O  O70  1  0.526372  0.498193  0.511181  1
  O  O71  1  0.608653  0.490875  0.989499  1
  O  O72  1  0.658689  0.992807  0.510102  1
  O  O73  1  0.576320  0.507150  0.502310  1
  O  O74  1  0.659186  0.499813  0.986064  1
  O  O75  1  0.708032  0.010799  0.496398  1
  O  O76  1  0.635881  0.484499  0.487777  1
  O  O77  1  0.708470  0.503526  0.013136  1
  O  O78  1  0.765083  0.991107  0.502777  1
  O  O79  1  0.684069  0.504660  0.492437  1
  O  O80  1  0.762597  0.504388  0.997097  1
  O  O81  1  0.816677  0.998540  0.495524  1
  O  O82  1  0.737616  0.498518  0.497207  1
  O  O83  1  0.868081  -0.000052  0.503532  1
  O  O84  1  0.817949  0.491955  0.000250  1
  O  O85  1  0.789501  0.497612  0.505446  1
  O  O86  1  0.921458  0.990512  0.511727  1
  O  O87  1  0.864240  0.512813  0.011137  1
  O  O88  1  0.838103  0.513356  0.512439  1
  O  O89  1  0.973854  0.001001  0.503010  1
  O  O90  1  0.920956  0.505296  0.997483  1
  O  O91  1  0.898967  0.484787  0.496673  1
  O  O92  1  0.975379  0.497098  0.989527  1
  O  O93  1  0.948419  0.498195  0.488469  1
