# generated using pymatgen
data_Li2WO4
_symmetry_space_group_name_H-M   'P 1'
_cell_length_a   9.07018096
_cell_length_b   9.07018095
_cell_length_c   9.07018096
_cell_angle_alpha   107.82709311
_cell_angle_beta   107.82709310
_cell_angle_gamma   107.82709310
_symmetry_Int_Tables_number   1
_chemical_formula_structural   Li2WO4
_chemical_formula_sum   'Li12 W6 O24'
_cell_volume   606.86537016
_cell_formula_units_Z   6
loop_
 _symmetry_equiv_pos_site_id
 _symmetry_equiv_pos_as_xyz
  1  'x, y, z'
loop_
 _atom_site_type_symbol
 _atom_site_label
 _atom_site_symmetry_multiplicity
 _atom_site_fract_x
 _atom_site_fract_y
 _atom_site_fract_z
 _atom_site_occupancy
  Li  Li1  1  0.067565  0.296245  0.892777  1
  Li  Li2  1  0.296244  0.892776  0.067565  1
  Li  Li3  1  0.892777  0.067565  0.296245  1
  Li  Li4  1  0.932434  0.703755  0.107223  1
  Li  Li5  1  0.703755  0.107224  0.932435  1
  Li  Li6  1  0.107223  0.932435  0.703755  1
  Li  Li7  1  0.223498  0.393958  0.628749  1
  Li  Li8  1  0.606043  0.371251  0.776503  1
  Li  Li9  1  0.371251  0.776502  0.606042  1
  Li  Li10  1  0.776502  0.606042  0.371251  1
  Li  Li11  1  0.393957  0.628749  0.223497  1
  Li  Li12  1  0.628750  0.223498  0.393958  1
  O  O13  1  0.575303  0.249092  0.920720  1
  O  O14  1  0.920721  0.575303  0.249092  1
  O  O15  1  0.249092  0.920721  0.575303  1
  O  O16  1  0.424697  0.750908  0.079280  1
  O  O17  1  0.079280  0.424697  0.750909  1
  O  O18  1  0.861801  0.846048  0.540673  1
  O  O19  1  0.220750  0.180984  0.883780  1
  O  O20  1  0.883779  0.220750  0.180983  1
  O  O21  1  0.180983  0.883779  0.220750  1
  O  O22  1  0.846048  0.540672  0.861801  1
  O  O23  1  0.116221  0.779250  0.819016  1
  O  O24  1  0.819016  0.116220  0.779250  1
  O  O25  1  0.529099  0.491621  0.190365  1
  O  O26  1  0.190364  0.529098  0.491620  1
  O  O27  1  0.491621  0.190365  0.529098  1
  O  O28  1  0.470901  0.508379  0.809635  1
  O  O29  1  0.809636  0.470902  0.508379  1
  O  O30  1  0.508379  0.809635  0.470902  1
  O  O31  1  0.540672  0.861801  0.846048  1
  O  O32  1  0.138199  0.153951  0.459328  1
  O  O33  1  0.153952  0.459327  0.138199  1
  O  O34  1  0.459327  0.138199  0.153952  1
  O  O35  1  0.750908  0.079279  0.424697  1
  O  O36  1  0.779250  0.819016  0.116221  1
  W  W37  1  0.732510  0.963601  0.554789  1
  W  W38  1  0.963601  0.554789  0.732510  1
  W  W39  1  0.554790  0.732510  0.963602  1
  W  W40  1  0.267490  0.036399  0.445210  1
  W  W41  1  0.036399  0.445211  0.267491  1
  W  W42  1  0.445210  0.267491  0.036399  1
