# generated using pymatgen
data_Li2(CoO2)3
_symmetry_space_group_name_H-M   'P 1'
_cell_length_a   4.87797241
_cell_length_b   4.87697382
_cell_length_c   10.11220742
_cell_angle_alpha   76.18641118
_cell_angle_beta   76.03065205
_cell_angle_gamma   59.99089989
_symmetry_Int_Tables_number   1
_chemical_formula_structural   Li2(CoO2)3
_chemical_formula_sum   'Li4 Co6 O12'
_cell_volume   200.15291109
_cell_formula_units_Z   2
loop_
 _symmetry_equiv_pos_site_id
 _symmetry_equiv_pos_as_xyz
  1  'x, y, z'
loop_
 _atom_site_type_symbol
 _atom_site_label
 _atom_site_symmetry_multiplicity
 _atom_site_fract_x
 _atom_site_fract_y
 _atom_site_fract_z
 _atom_site_occupancy
  Li  Li1  1  0.080728  0.749558  0.756497  1
  Li  Li2  1  0.246967  0.580539  0.256609  1
  Li  Li3  1  0.415982  0.080630  0.756482  1
  Li  Li4  1  0.913207  0.249450  0.256578  1
  Co  Co5  1  0.999422  0.333571  0.998012  1
  Co  Co6  1  0.168989  0.833627  0.498008  1
  Co  Co7  1  0.335197  0.665679  0.997984  1
  Co  Co8  1  0.501126  0.165739  0.497974  1
  Co  Co9  1  0.664515  0.999471  0.006357  1
  Co  Co10  1  0.829637  0.499514  0.506376  1
  O  O11  1  0.031682  0.027655  0.897152  1
  O  O12  1  0.136740  0.466089  0.603515  1
  O  O13  1  0.186181  0.215390  0.397294  1
  O  O14  1  0.293603  0.966013  0.103528  1
  O  O15  1  0.370719  0.358053  0.897101  1
  O  O16  1  0.460636  0.803256  0.604754  1
  O  O17  1  0.543621  0.527692  0.397159  1
  O  O18  1  0.631311  0.303188  0.104772  1
  O  O19  1  0.701280  0.715341  0.897266  1
  O  O20  1  0.874218  0.858064  0.397117  1
  O  O21  1  0.798622  0.128037  0.603144  1
  O  O22  1  0.970130  0.627961  0.103157  1
