# generated using pymatgen
data_Li6W2O9
_symmetry_space_group_name_H-M   'P 1'
_cell_length_a   6.66817157
_cell_length_b   8.32740661
_cell_length_c   6.66817157
_cell_angle_alpha   71.85428274
_cell_angle_beta   83.87383919
_cell_angle_gamma   71.85428274
_symmetry_Int_Tables_number   1
_chemical_formula_structural   Li6W2O9
_chemical_formula_sum   'Li12 W4 O18'
_cell_volume   334.34119601
_cell_formula_units_Z   2
loop_
 _symmetry_equiv_pos_site_id
 _symmetry_equiv_pos_as_xyz
  1  'x, y, z'
loop_
 _atom_site_type_symbol
 _atom_site_label
 _atom_site_symmetry_multiplicity
 _atom_site_fract_x
 _atom_site_fract_y
 _atom_site_fract_z
 _atom_site_occupancy
  Li  Li1  1  0.678649  0.666077  0.650531  1
  Li  Li2  1  0.993629  0.668690  0.331033  1
  Li  Li3  1  0.334804  0.661230  0.023848  1
  Li  Li4  1  0.690514  0.161230  0.668138  1
  Li  Li5  1  0.317198  0.166077  0.011982  1
  Li  Li6  1  0.997700  0.168690  0.326962  1
  Li  Li7  1  0.988018  0.833923  0.682802  1
  Li  Li8  1  0.673038  0.831310  0.002300  1
  Li  Li9  1  0.331862  0.838770  0.309486  1
  Li  Li10  1  0.349469  0.333923  0.321351  1
  Li  Li11  1  0.668967  0.331310  0.006371  1
  Li  Li12  1  0.976152  0.338770  0.665196  1
  W  W13  1  0.343478  0.500000  0.656522  1
  W  W14  1  0.323188  0.000000  0.676812  1
  W  W15  1  0.696386  0.000000  0.303614  1
  W  W16  1  0.970281  0.500000  0.029719  1
  O  O17  1  0.011206  0.417547  0.318386  1
  O  O18  1  0.348817  0.918976  0.967168  1
  O  O19  1  0.633835  0.418976  0.682151  1
  O  O20  1  0.641778  0.929300  0.647748  1
  O  O21  1  0.314415  0.429300  0.975112  1
  O  O22  1  0.985052  0.917548  0.344539  1
  O  O23  1  0.663732  0.774638  0.336474  1
  O  O24  1  0.333333  0.250000  0.666667  1
  O  O25  1  0.333333  0.750000  0.666667  1
  O  O26  1  0.663526  0.225362  0.336268  1
  O  O27  1  0.317849  0.581024  0.366165  1
  O  O28  1  0.681614  0.582452  0.988795  1
  O  O29  1  0.352252  0.070700  0.358222  1
  O  O30  1  0.032832  0.081024  0.651183  1
  O  O31  1  0.024888  0.570700  0.685585  1
  O  O32  1  0.655461  0.082453  0.014948  1
  O  O33  1  0.002934  0.725362  0.996859  1
  O  O34  1  0.003141  0.274638  0.997066  1
