# generated using pymatgen
data_Li2WO4
_symmetry_space_group_name_H-M   'P 1'
_cell_length_a   8.49523141
_cell_length_b   9.63388307
_cell_length_c   9.63388307
_cell_angle_alpha   78.79054857
_cell_angle_beta   63.83843831
_cell_angle_gamma   63.83843829
_symmetry_Int_Tables_number   1
_chemical_formula_structural   Li2WO4
_chemical_formula_sum   'Li16 W8 O32'
_cell_volume   635.18389797
_cell_formula_units_Z   8
loop_
 _symmetry_equiv_pos_site_id
 _symmetry_equiv_pos_as_xyz
  1  'x, y, z'
loop_
 _atom_site_type_symbol
 _atom_site_label
 _atom_site_symmetry_multiplicity
 _atom_site_fract_x
 _atom_site_fract_y
 _atom_site_fract_z
 _atom_site_occupancy
  Li  Li1  1  0.365248  0.134752  0.134752  1
  Li  Li2  1  0.000000  0.365248  0.134752  1
  Li  Li3  1  0.500000  0.134752  0.365248  1
  Li  Li4  1  0.634752  0.365248  0.365248  1
  Li  Li5  1  0.634752  0.865248  0.865248  1
  Li  Li6  1  0.000000  0.634752  0.865248  1
  Li  Li7  1  0.500000  0.865248  0.634752  1
  Li  Li8  1  0.365248  0.634752  0.634752  1
  Li  Li9  1  0.744446  0.511109  0.750000  1
  Li  Li10  1  0.255554  0.750000  0.988891  1
  Li  Li11  1  0.005554  0.250000  0.488891  1
  Li  Li12  1  0.994446  0.011109  0.250000  1
  Li  Li13  1  0.255554  0.488891  0.250000  1
  Li  Li14  1  0.744446  0.250000  0.011109  1
  Li  Li15  1  0.994446  0.750000  0.511109  1
  Li  Li16  1  0.005554  0.988891  0.750000  1
  O  O17  1  0.987003  0.873044  0.126956  1
  O  O18  1  0.841864  0.643388  0.143388  1
  O  O19  1  0.628641  0.856612  0.356612  1
  O  O20  1  0.485252  0.356612  0.643388  1
  O  O21  1  0.371359  0.143388  0.643388  1
  O  O22  1  0.158136  0.356612  0.856612  1
  O  O23  1  0.514748  0.643388  0.356612  1
  O  O24  1  0.485252  0.143388  0.856612  1
  O  O25  1  0.370743  0.904779  0.864422  1
  O  O26  1  0.735165  0.635578  0.904779  1
  O  O27  1  0.275523  0.864422  0.595221  1
  O  O28  1  0.139945  0.595221  0.635578  1
  O  O29  1  0.724477  0.904779  0.635578  1
  O  O30  1  0.264835  0.595221  0.864422  1
  O  O31  1  0.629257  0.635578  0.595221  1
  O  O32  1  0.860055  0.864422  0.904779  1
  O  O33  1  0.629257  0.095221  0.135578  1
  O  O34  1  0.264835  0.364422  0.095221  1
  O  O35  1  0.724477  0.135578  0.404779  1
  O  O36  1  0.860055  0.404779  0.364422  1
  O  O37  1  0.275523  0.095221  0.364422  1
  O  O38  1  0.735165  0.404779  0.135578  1
  O  O39  1  0.370743  0.364422  0.404779  1
  O  O40  1  0.139945  0.135578  0.095221  1
  O  O41  1  0.613959  0.373044  0.873044  1
  O  O42  1  0.860047  0.126956  0.626956  1
  O  O43  1  0.012997  0.373044  0.626956  1
  O  O44  1  0.139953  0.873044  0.373044  1
  O  O45  1  0.386041  0.626956  0.126956  1
  O  O46  1  0.012997  0.126956  0.873044  1
  O  O47  1  0.514748  0.856612  0.143388  1
  O  O48  1  0.987003  0.626956  0.373044  1
  W  W49  1  0.775504  0.885809  0.114191  1
  W  W50  1  0.775504  0.614191  0.385809  1
  W  W51  1  0.389694  0.385809  0.885809  1
  W  W52  1  0.661313  0.114191  0.614191  1
  W  W53  1  0.224496  0.385809  0.614191  1
  W  W54  1  0.338687  0.885809  0.385809  1
  W  W55  1  0.610306  0.614191  0.114191  1
  W  W56  1  0.224496  0.114191  0.885809  1
