# generated using pymatgen
data_LiWO2
_symmetry_space_group_name_H-M   'P 1'
_cell_length_a   5.77779297
_cell_length_b   5.77779298
_cell_length_c   5.77779295
_cell_angle_alpha   28.25060223
_cell_angle_beta   28.25060303
_cell_angle_gamma   28.25060624
_symmetry_Int_Tables_number   1
_chemical_formula_structural   LiWO2
_chemical_formula_sum   'Li1 W1 O2'
_cell_volume   38.18066782
_cell_formula_units_Z   1
loop_
 _symmetry_equiv_pos_site_id
 _symmetry_equiv_pos_as_xyz
  1  'x, y, z'
loop_
 _atom_site_type_symbol
 _atom_site_label
 _atom_site_symmetry_multiplicity
 _atom_site_fract_x
 _atom_site_fract_y
 _atom_site_fract_z
 _atom_site_occupancy
  Li  Li1  1  0.500001  0.500001  0.499999  1
  O  O2  1  0.245630  0.245628  0.245629  1
  O  O3  1  0.754373  0.754370  0.754371  1
  W  W4  1  0.000000  0.000000  0.000000  1
