# generated using pymatgen
data_Li(WO2)2
_symmetry_space_group_name_H-M   'P 1'
_cell_length_a   6.36842375
_cell_length_b   6.36842427
_cell_length_c   6.36842275
_cell_angle_alpha   59.99999524
_cell_angle_beta   59.99999259
_cell_angle_gamma   59.99999769
_symmetry_Int_Tables_number   1
_chemical_formula_structural   Li(WO2)2
_chemical_formula_sum   'Li2 W4 O8'
_cell_volume   182.63364291
_cell_formula_units_Z   2
loop_
 _symmetry_equiv_pos_site_id
 _symmetry_equiv_pos_as_xyz
  1  'x, y, z'
loop_
 _atom_site_type_symbol
 _atom_site_label
 _atom_site_symmetry_multiplicity
 _atom_site_fract_x
 _atom_site_fract_y
 _atom_site_fract_z
 _atom_site_occupancy
  Li  Li1  1  0.125001  0.125000  0.125000  1
  Li  Li2  1  0.875000  0.874999  0.875001  1
  O  O3  1  0.737969  0.737969  0.286093  1
  O  O4  1  0.737969  0.737969  0.737969  1
  O  O5  1  0.262032  0.262031  0.713906  1
  O  O6  1  0.262032  0.713907  0.262031  1
  O  O7  1  0.262032  0.262031  0.262031  1
  O  O8  1  0.713907  0.262031  0.262031  1
  O  O9  1  0.737970  0.286092  0.737970  1
  O  O10  1  0.286094  0.737969  0.737970  1
  W  W11  1  0.499999  0.500001  0.500000  1
  W  W12  1  0.500001  0.000000  0.500000  1
  W  W13  1  0.000001  0.500001  0.500000  1
  W  W14  1  0.499999  0.500001  0.000000  1
