# generated using pymatgen
data_Li6ZnO4
_symmetry_space_group_name_H-M   'P 1'
_cell_length_a   4.70487343
_cell_length_b   6.59795386
_cell_length_c   6.59795386
_cell_angle_alpha   90.00000000
_cell_angle_beta   90.00000000
_cell_angle_gamma   90.00000000
_symmetry_Int_Tables_number   1
_chemical_formula_structural   Li6ZnO4
_chemical_formula_sum   'Li12 Zn2 O8'
_cell_volume   204.81723216
_cell_formula_units_Z   2
loop_
 _symmetry_equiv_pos_site_id
 _symmetry_equiv_pos_as_xyz
  1  'x, y, z'
loop_
 _atom_site_type_symbol
 _atom_site_label
 _atom_site_symmetry_multiplicity
 _atom_site_fract_x
 _atom_site_fract_y
 _atom_site_fract_z
 _atom_site_occupancy
  Li  Li1  1  0.704932  0.250000  0.250000  1
  Li  Li2  1  0.295068  0.750000  0.750000  1
  Li  Li3  1  0.750000  0.468071  0.531929  1
  Li  Li4  1  0.250000  0.968071  0.468071  1
  Li  Li5  1  0.250000  0.531929  0.031929  1
  Li  Li6  1  0.750000  0.031929  0.968071  1
  Li  Li7  1  0.250000  0.531929  0.468071  1
  Li  Li8  1  0.750000  0.031929  0.531929  1
  Li  Li9  1  0.750000  0.468071  0.968071  1
  Li  Li10  1  0.795068  0.750000  0.750000  1
  Li  Li11  1  0.204932  0.250000  0.250000  1
  Li  Li12  1  0.250000  0.968071  0.031929  1
  O  O13  1  0.533914  0.750000  0.986508  1
  O  O14  1  0.033914  0.986508  0.750000  1
  O  O15  1  0.466086  0.250000  0.486508  1
  O  O16  1  0.966086  0.013492  0.250000  1
  O  O17  1  0.966086  0.486508  0.250000  1
  O  O18  1  0.033914  0.513492  0.750000  1
  O  O19  1  0.533914  0.750000  0.513492  1
  O  O20  1  0.466086  0.250000  0.013492  1
  Zn  Zn21  1  0.250000  0.250000  0.750000  1
  Zn  Zn22  1  0.750000  0.750000  0.250000  1
