# generated using pymatgen
data_Li10Zn4O9
_symmetry_space_group_name_H-M   'P 1'
_cell_length_a   4.70913532
_cell_length_b   9.83332999
_cell_length_c   9.83332999
_cell_angle_alpha   90.00000000
_cell_angle_beta   90.00000000
_cell_angle_gamma   90.00000000
_symmetry_Int_Tables_number   1
_chemical_formula_structural   Li10Zn4O9
_chemical_formula_sum   'Li20 Zn8 O18'
_cell_volume   455.34691395
_cell_formula_units_Z   2
loop_
 _symmetry_equiv_pos_site_id
 _symmetry_equiv_pos_as_xyz
  1  'x, y, z'
loop_
 _atom_site_type_symbol
 _atom_site_label
 _atom_site_symmetry_multiplicity
 _atom_site_fract_x
 _atom_site_fract_y
 _atom_site_fract_z
 _atom_site_occupancy
  Li  Li1  1  0.539639  0.937571  0.893832  1
  Li  Li2  1  0.539639  0.562429  0.606168  1
  Li  Li3  1  0.039639  0.893832  0.562429  1
  Li  Li4  1  0.039639  0.606168  0.937571  1
  Li  Li5  1  0.960361  0.393832  0.437571  1
  Li  Li6  1  0.460361  0.062429  0.393832  1
  Li  Li7  1  0.460361  0.437571  0.106168  1
  Li  Li8  1  0.960361  0.106168  0.062429  1
  Li  Li9  1  0.960361  0.106168  0.437571  1
  Li  Li10  1  0.960361  0.393832  0.062429  1
  Li  Li11  1  0.039639  0.606168  0.562429  1
  Li  Li12  1  0.539639  0.937571  0.606168  1
  Li  Li13  1  0.539639  0.562429  0.893832  1
  Li  Li14  1  0.039639  0.893832  0.937571  1
  Li  Li15  1  0.419053  0.250000  0.250000  1
  Li  Li16  1  0.919053  0.250000  0.250000  1
  Li  Li17  1  0.580947  0.750000  0.750000  1
  Li  Li18  1  0.080947  0.750000  0.750000  1
  Li  Li19  1  0.460361  0.437571  0.393832  1
  Li  Li20  1  0.460361  0.062429  0.106168  1
  O  O21  1  0.750000  0.923420  0.423420  1
  O  O22  1  0.250000  0.423420  0.576580  1
  O  O23  1  0.750000  0.923420  0.076579  1
  O  O24  1  0.250000  0.423420  0.923420  1
  O  O25  1  0.250000  0.076579  0.576580  1
  O  O26  1  0.750000  0.576580  0.423420  1
  O  O27  1  0.750000  0.250000  0.750000  1
  O  O28  1  0.250000  0.750000  0.250000  1
  O  O29  1  0.320518  0.750000  0.907409  1
  O  O30  1  0.320518  0.750000  0.592591  1
  O  O31  1  0.820518  0.907409  0.750000  1
  O  O32  1  0.820518  0.592591  0.750000  1
  O  O33  1  0.179482  0.407409  0.250000  1
  O  O34  1  0.679482  0.250000  0.407409  1
  O  O35  1  0.679482  0.250000  0.092591  1
  O  O36  1  0.179482  0.092591  0.250000  1
  O  O37  1  0.250000  0.076579  0.923420  1
  O  O38  1  0.750000  0.576580  0.076579  1
  Zn  Zn39  1  0.481455  0.250000  0.911941  1
  Zn  Zn40  1  0.481455  0.250000  0.588059  1
  Zn  Zn41  1  0.981455  0.911941  0.250000  1
  Zn  Zn42  1  0.981455  0.588059  0.250000  1
  Zn  Zn43  1  0.018545  0.411941  0.750000  1
  Zn  Zn44  1  0.518545  0.750000  0.411941  1
  Zn  Zn45  1  0.518545  0.750000  0.088059  1
  Zn  Zn46  1  0.018545  0.088059  0.750000  1
