# generated using pymatgen
data_Li4ZrO4
_symmetry_space_group_name_H-M   'P 1'
_cell_length_a   5.57670511
_cell_length_b   14.71317929
_cell_length_c   5.53179315
_cell_angle_alpha   90.00000000
_cell_angle_beta   116.71928728
_cell_angle_gamma   90.00000000
_symmetry_Int_Tables_number   1
_chemical_formula_structural   Li4ZrO4
_chemical_formula_sum   'Li16 Zr4 O16'
_cell_volume   405.42322072
_cell_formula_units_Z   4
loop_
 _symmetry_equiv_pos_site_id
 _symmetry_equiv_pos_as_xyz
  1  'x, y, z'
loop_
 _atom_site_type_symbol
 _atom_site_label
 _atom_site_symmetry_multiplicity
 _atom_site_fract_x
 _atom_site_fract_y
 _atom_site_fract_z
 _atom_site_occupancy
  Li  Li1  1  0.253546  0.209368  0.707057  1
  Li  Li2  1  0.236774  0.998340  0.703792  1
  Li  Li3  1  0.279289  0.771958  0.855471  1
  Li  Li4  1  0.335024  0.611987  0.747761  1
  Li  Li5  1  0.253546  0.290632  0.207057  1
  Li  Li6  1  0.236774  0.501660  0.203792  1
  Li  Li7  1  0.279289  0.728042  0.355471  1
  Li  Li8  1  0.335024  0.888013  0.247761  1
  Li  Li9  1  0.664976  0.111987  0.752239  1
  Li  Li10  1  0.720711  0.271958  0.644529  1
  Li  Li11  1  0.763226  0.498340  0.796208  1
  Li  Li12  1  0.746454  0.709368  0.792943  1
  Li  Li13  1  0.664976  0.388013  0.252238  1
  Li  Li14  1  0.720711  0.228042  0.144529  1
  Li  Li15  1  0.763226  0.001660  0.296208  1
  Li  Li16  1  0.746454  0.790632  0.292943  1
  Zr  Zr17  1  0.214814  0.396795  0.644280  1
  Zr  Zr18  1  0.214814  0.103205  0.144280  1
  Zr  Zr19  1  0.785186  0.896795  0.855720  1
  Zr  Zr20  1  0.785186  0.603205  0.355720  1
  O  O21  1  0.944456  0.300225  0.465159  1
  O  O22  1  0.119480  0.511174  0.796195  1
  O  O23  1  0.944456  0.199775  0.965159  1
  O  O24  1  0.119480  0.988826  0.296195  1
  O  O25  1  0.425097  0.316225  0.958579  1
  O  O26  1  0.459389  0.401686  0.467827  1
  O  O27  1  0.540611  0.901686  0.032173  1
  O  O28  1  0.425097  0.183775  0.458579  1
  O  O29  1  0.574903  0.816225  0.541421  1
  O  O30  1  0.459389  0.098314  0.967827  1
  O  O31  1  0.540611  0.598314  0.532173  1
  O  O32  1  0.574903  0.683775  0.041421  1
  O  O33  1  0.880520  0.011174  0.703805  1
  O  O34  1  0.055544  0.800225  0.034841  1
  O  O35  1  0.880520  0.488826  0.203805  1
  O  O36  1  0.055544  0.699775  0.534841  1
