# generated using pymatgen
data_LiZr2O4
_symmetry_space_group_name_H-M   'P 1'
_cell_length_a   5.16634182
_cell_length_b   10.86671347
_cell_length_c   6.10381824
_cell_angle_alpha   89.99958855
_cell_angle_beta   89.99921191
_cell_angle_gamma   90.00052259
_symmetry_Int_Tables_number   1
_chemical_formula_structural   LiZr2O4
_chemical_formula_sum   'Li4 Zr8 O16'
_cell_volume   342.67541348
_cell_formula_units_Z   4
loop_
 _symmetry_equiv_pos_site_id
 _symmetry_equiv_pos_as_xyz
  1  'x, y, z'
loop_
 _atom_site_type_symbol
 _atom_site_label
 _atom_site_symmetry_multiplicity
 _atom_site_fract_x
 _atom_site_fract_y
 _atom_site_fract_z
 _atom_site_occupancy
  Li  Li1  1  0.058687  0.602351  0.250000  1
  Li  Li2  1  0.441302  0.102348  0.249998  1
  Li  Li3  1  0.558702  0.897654  0.749999  1
  Li  Li4  1  0.941314  0.397649  0.749998  1
  Zr  Zr5  1  0.000003  0.000000  0.000006  1
  Zr  Zr6  1  0.000000  0.999997  0.499995  1
  Zr  Zr7  1  0.021915  0.720737  0.750000  1
  Zr  Zr8  1  0.478068  0.220739  0.749993  1
  Zr  Zr9  1  0.500002  0.499999  1.000000  1
  Zr  Zr10  1  0.499994  0.499999  0.499990  1
  Zr  Zr11  1  0.521925  0.779262  0.250004  1
  Zr  Zr12  1  0.978086  0.279261  0.250005  1
  O  O13  1  0.215160  0.435909  0.250006  1
  O  O14  1  0.269960  0.670814  0.012679  1
  O  O15  1  0.269953  0.670811  0.487327  1
  O  O16  1  0.296660  0.395051  0.749999  1
  O  O17  1  0.203312  0.895046  0.750031  1
  O  O18  1  0.230015  0.170803  0.012688  1
  O  O19  1  0.230029  0.170814  0.487307  1
  O  O20  1  0.284828  0.935909  0.249979  1
  O  O21  1  0.715172  0.064091  0.750020  1
  O  O22  1  0.769987  0.829197  0.987311  1
  O  O23  1  0.769977  0.829185  0.512692  1
  O  O24  1  0.796684  0.104956  0.249981  1
  O  O25  1  0.703335  0.604951  0.249998  1
  O  O26  1  0.730050  0.329186  0.987329  1
  O  O27  1  0.730043  0.329190  0.512669  1
  O  O28  1  0.784835  0.564092  0.749996  1
