# generated using pymatgen
data_LiCoO2
_symmetry_space_group_name_H-M   'P 1'
_cell_length_a   4.95337386
_cell_length_b   5.00346307
_cell_length_c   7.57310030
_cell_angle_alpha   108.77149518
_cell_angle_beta   102.85051784
_cell_angle_gamma   99.44978956
_symmetry_Int_Tables_number   1
_chemical_formula_structural   LiCoO2
_chemical_formula_sum   'Li5 Co5 O10'
_cell_volume   167.51178373
_cell_formula_units_Z   5
loop_
 _symmetry_equiv_pos_site_id
 _symmetry_equiv_pos_as_xyz
  1  'x, y, z'
loop_
 _atom_site_type_symbol
 _atom_site_label
 _atom_site_symmetry_multiplicity
 _atom_site_fract_x
 _atom_site_fract_y
 _atom_site_fract_z
 _atom_site_occupancy
  Li  Li1  1  0.213037  0.914599  0.414704  1
  Li  Li2  1  0.391901  0.289084  0.779115  1
  Li  Li3  1  0.500000  0.500000  0.500000  1
  Li  Li4  1  0.608099  0.710916  0.220885  1
  Li  Li5  1  0.786963  0.085401  0.585296  1
  Co  Co6  1  0.102544  0.698500  0.694515  1
  Co  Co7  1  0.000000  0.500000  0.000000  1
  Co  Co8  1  0.697374  0.896950  0.898907  1
  Co  Co9  1  0.302626  0.103050  0.101093  1
  Co  Co10  1  0.897456  0.301500  0.305485  1
  O  O11  1  0.037815  0.081056  0.857600  1
  O  O12  1  0.347545  0.726382  0.948594  1
  O  O13  1  0.130325  0.323029  0.548411  1
  O  O14  1  0.227509  0.472513  0.230618  1
  O  O15  1  0.445949  0.890471  0.666357  1
  O  O16  1  0.554051  0.109529  0.333643  1
  O  O17  1  0.772491  0.527487  0.769382  1
  O  O18  1  0.869675  0.676971  0.451589  1
  O  O19  1  0.652455  0.273618  0.051406  1
  O  O20  1  0.962185  0.918944  0.142400  1
