# generated using pymatgen
data_Li7ZrO6
_symmetry_space_group_name_H-M   'P 1'
_cell_length_a   6.03888179
_cell_length_b   6.03888179
_cell_length_c   6.03888205
_cell_angle_alpha   56.00219133
_cell_angle_beta   56.00219139
_cell_angle_gamma   56.00219282
_symmetry_Int_Tables_number   1
_chemical_formula_structural   Li7ZrO6
_chemical_formula_sum   'Li7 Zr1 O6'
_cell_volume   141.30107121
_cell_formula_units_Z   1
loop_
 _symmetry_equiv_pos_site_id
 _symmetry_equiv_pos_as_xyz
  1  'x, y, z'
loop_
 _atom_site_type_symbol
 _atom_site_label
 _atom_site_symmetry_multiplicity
 _atom_site_fract_x
 _atom_site_fract_y
 _atom_site_fract_z
 _atom_site_occupancy
  Li  Li1  1  0.072016  0.770175  0.508686  1
  Li  Li2  1  0.505132  0.875066  0.270649  1
  Li  Li3  1  0.270649  0.505132  0.875066  1
  Li  Li4  1  0.346714  0.346714  0.346714  1
  Li  Li5  1  0.770175  0.508686  0.072016  1
  Li  Li6  1  0.508686  0.072016  0.770175  1
  Li  Li7  1  0.875066  0.270649  0.505132  1
  Zr  Zr8  1  0.999805  0.999805  0.999805  1
  O  O9  1  0.203176  0.929853  0.612730  1
  O  O10  1  0.369970  0.761909  0.119014  1
  O  O11  1  0.119014  0.369970  0.761909  1
  O  O12  1  0.929853  0.612730  0.203176  1
  O  O13  1  0.612730  0.203176  0.929853  1
  O  O14  1  0.761909  0.119014  0.369970  1
