# generated using pymatgen
data_Li8ZrO6
_symmetry_space_group_name_H-M   'P 1'
_cell_length_a   5.74966691
_cell_length_b   5.74965280
_cell_length_c   10.90589060
_cell_angle_alpha   89.99986686
_cell_angle_beta   90.00037945
_cell_angle_gamma   119.99997118
_symmetry_Int_Tables_number   1
_chemical_formula_structural   Li8ZrO6
_chemical_formula_sum   'Li16 Zr2 O12'
_cell_volume   312.23112990
_cell_formula_units_Z   2
loop_
 _symmetry_equiv_pos_site_id
 _symmetry_equiv_pos_as_xyz
  1  'x, y, z'
loop_
 _atom_site_type_symbol
 _atom_site_label
 _atom_site_symmetry_multiplicity
 _atom_site_fract_x
 _atom_site_fract_y
 _atom_site_fract_z
 _atom_site_occupancy
  Li  Li1  1  0.999983  0.676023  0.768295  1
  Li  Li2  1  0.000001  0.590689  0.127268  1
  Li  Li3  1  0.999977  0.409319  0.627266  1
  Li  Li4  1  0.000002  0.323977  0.268295  1
  Li  Li5  1  0.333340  0.666686  0.406997  1
  Li  Li6  1  0.333318  0.666656  0.906998  1
  Li  Li7  1  0.323936  0.323934  0.768295  1
  Li  Li8  1  0.409334  0.409355  0.127260  1
  Li  Li9  1  0.590638  0.590638  0.627259  1
  Li  Li10  1  0.323960  0.000022  0.268294  1
  Li  Li11  1  0.676046  0.676065  0.268293  1
  Li  Li12  1  0.409313  0.999978  0.627264  1
  Li  Li13  1  0.666658  0.333316  0.906998  1
  Li  Li14  1  0.666665  0.333347  0.406997  1
  Li  Li15  1  0.590656  0.000022  0.127261  1
  Li  Li16  1  0.676021  0.999980  0.768295  1
  Zr  Zr17  1  0.999985  0.999981  0.994598  1
  Zr  Zr18  1  -0.000006  0.000012  0.494600  1
  O  O19  1  0.999985  0.665941  0.948523  1
  O  O20  1  0.999998  0.334075  0.448523  1
  O  O21  1  0.333341  0.666683  0.212766  1
  O  O22  1  0.000002  0.999961  0.179254  1
  O  O23  1  0.000036  0.000038  0.679263  1
  O  O24  1  0.333324  0.666657  0.712765  1
  O  O25  1  0.334031  0.334030  0.948528  1
  O  O26  1  0.334052  0.000017  0.448524  1
  O  O27  1  0.665931  0.665953  0.448525  1
  O  O28  1  0.666657  0.333317  0.712765  1
  O  O29  1  0.666669  0.333347  0.212764  1
  O  O30  1  0.665948  0.999984  0.948527  1
