# generated using pymatgen
data_Li4Zr3O8
_symmetry_space_group_name_H-M   'P 1'
_cell_length_a   5.46528813
_cell_length_b   10.19813392
_cell_length_c   6.20755523
_cell_angle_alpha   90.00000000
_cell_angle_beta   90.00000000
_cell_angle_gamma   80.25645854
_symmetry_Int_Tables_number   1
_chemical_formula_structural   Li4Zr3O8
_chemical_formula_sum   'Li8 Zr6 O16'
_cell_volume   340.99193494
_cell_formula_units_Z   2
loop_
 _symmetry_equiv_pos_site_id
 _symmetry_equiv_pos_as_xyz
  1  'x, y, z'
loop_
 _atom_site_type_symbol
 _atom_site_label
 _atom_site_symmetry_multiplicity
 _atom_site_fract_x
 _atom_site_fract_y
 _atom_site_fract_z
 _atom_site_occupancy
  Li  Li1  1  0.381669  0.132630  0.877345  1
  Li  Li2  1  0.868331  0.117370  0.622655  1
  Li  Li3  1  0.868331  0.617370  0.877345  1
  Li  Li4  1  0.381669  0.632630  0.622655  1
  Li  Li5  1  0.625000  0.375000  0.392528  1
  Li  Li6  1  0.125000  0.375000  0.127083  1
  Li  Li7  1  0.125000  0.875000  0.372917  1
  Li  Li8  1  0.625000  0.875000  0.107472  1
  Zr  Zr9  1  0.390333  0.105100  0.388713  1
  Zr  Zr10  1  0.125000  0.375000  0.646886  1
  Zr  Zr11  1  0.859667  0.144900  0.111287  1
  Zr  Zr12  1  0.125000  0.875000  0.853114  1
  Zr  Zr13  1  0.859667  0.644900  0.388713  1
  Zr  Zr14  1  0.390333  0.605100  0.111287  1
  O  O15  1  0.226647  0.500412  0.876841  1
  O  O16  1  0.023353  0.249588  0.876841  1
  O  O17  1  0.015897  0.246488  0.374347  1
  O  O18  1  0.234103  0.003512  0.125653  1
  O  O19  1  0.747401  0.014220  0.354593  1
  O  O20  1  0.466740  0.245577  0.608238  1
  O  O21  1  0.234103  0.503512  0.374347  1
  O  O22  1  0.502599  0.235780  0.145407  1
  O  O23  1  0.783260  0.504423  0.608238  1
  O  O24  1  0.466740  0.745577  0.891762  1
  O  O25  1  0.783260  0.004423  0.891762  1
  O  O26  1  0.015897  0.746488  0.125653  1
  O  O27  1  0.226647  0.000412  0.623159  1
  O  O28  1  0.502599  0.735780  0.354593  1
  O  O29  1  0.023353  0.749588  0.623159  1
  O  O30  1  0.747401  0.514220  0.145407  1
