# generated using pymatgen
data_LiZr2O4
_symmetry_space_group_name_H-M   'P 1'
_cell_length_a   6.44910065
_cell_length_b   6.44910065
_cell_length_c   6.44910065
_cell_angle_alpha   120.02636775
_cell_angle_beta   120.02636775
_cell_angle_gamma   89.95433578
_symmetry_Int_Tables_number   1
_chemical_formula_structural   LiZr2O4
_chemical_formula_sum   'Li2 Zr4 O8'
_cell_volume   189.58727991
_cell_formula_units_Z   2
loop_
 _symmetry_equiv_pos_site_id
 _symmetry_equiv_pos_as_xyz
  1  'x, y, z'
loop_
 _atom_site_type_symbol
 _atom_site_label
 _atom_site_symmetry_multiplicity
 _atom_site_fract_x
 _atom_site_fract_y
 _atom_site_fract_z
 _atom_site_occupancy
  Li  Li1  1  0.375000  0.125000  0.250000  1
  Li  Li2  1  0.625000  0.875000  0.750000  1
  Zr  Zr3  1  0.500000  0.500000  0.000000  1
  Zr  Zr4  1  0.000000  0.000000  0.500000  1
  Zr  Zr5  1  0.000000  0.500000  0.000000  1
  Zr  Zr6  1  0.000000  0.500000  0.500000  1
  O  O7  1  0.762317  0.287289  0.024688  1
  O  O8  1  0.787289  0.262600  0.524972  1
  O  O9  1  0.237628  0.262317  0.975028  1
  O  O10  1  0.237400  0.262372  0.524688  1
  O  O11  1  0.762601  0.737628  0.475312  1
  O  O12  1  0.762372  0.737683  0.024972  1
  O  O13  1  0.212711  0.737399  0.475028  1
  O  O14  1  0.237683  0.712711  0.975312  1
