# generated using pymatgen
data_Li2Zr2O5
_symmetry_space_group_name_H-M   'P 1'
_cell_length_a   10.37499177
_cell_length_b   3.93065625
_cell_length_c   11.38285954
_cell_angle_alpha   90.00000000
_cell_angle_beta   105.84195589
_cell_angle_gamma   90.00000000
_symmetry_Int_Tables_number   1
_chemical_formula_structural   Li2Zr2O5
_chemical_formula_sum   'Li8 Zr8 O20'
_cell_volume   446.56795967
_cell_formula_units_Z   4
loop_
 _symmetry_equiv_pos_site_id
 _symmetry_equiv_pos_as_xyz
  1  'x, y, z'
loop_
 _atom_site_type_symbol
 _atom_site_label
 _atom_site_symmetry_multiplicity
 _atom_site_fract_x
 _atom_site_fract_y
 _atom_site_fract_z
 _atom_site_occupancy
  Li  Li1  1  0.093481  0.259565  0.047648  1
  Li  Li2  1  0.254242  0.296762  0.329943  1
  Li  Li3  1  0.245758  0.796762  0.170057  1
  Li  Li4  1  0.406519  0.759565  0.452352  1
  Li  Li5  1  0.593481  0.240435  0.547648  1
  Li  Li6  1  0.754242  0.203238  0.829943  1
  Li  Li7  1  0.745758  0.703238  0.670057  1
  Li  Li8  1  0.906519  0.740435  0.952352  1
  Zr  Zr9  1  0.186156  0.684766  0.855376  1
  Zr  Zr10  1  0.033656  0.861004  0.364321  1
  Zr  Zr11  1  0.313844  0.184767  0.644624  1
  Zr  Zr12  1  0.533656  0.638996  0.864321  1
  Zr  Zr13  1  0.466344  0.361004  0.135679  1
  Zr  Zr14  1  0.686156  0.815234  0.355376  1
  Zr  Zr15  1  0.966344  0.138996  0.635679  1
  Zr  Zr16  1  0.813844  0.315233  0.144624  1
  O  O17  1  0.103792  0.748155  0.989036  1
  O  O18  1  0.171954  0.176225  0.785652  1
  O  O19  1  0.000103  0.339631  0.291213  1
  O  O20  1  0.118659  0.133507  0.532159  1
  O  O21  1  0.381341  0.633507  0.967841  1
  O  O22  1  0.214849  0.798601  0.338931  1
  O  O23  1  0.328046  0.676225  0.714348  1
  O  O24  1  0.396208  0.248155  0.510964  1
  O  O25  1  0.285151  0.298601  0.161069  1
  O  O26  1  0.500103  0.160369  0.791213  1
  O  O27  1  0.499897  0.839631  0.208787  1
  O  O28  1  0.714849  0.701399  0.838931  1
  O  O29  1  0.603792  0.751845  0.489036  1
  O  O30  1  0.671954  0.323775  0.285652  1
  O  O31  1  0.785151  0.201399  0.661069  1
  O  O32  1  0.618659  0.366493  0.032159  1
  O  O33  1  0.881341  0.866493  0.467841  1
  O  O34  1  -0.000103  0.660369  0.708787  1
  O  O35  1  0.828046  0.823775  0.214348  1
  O  O36  1  0.896208  0.251845  0.010964  1
