# generated using pymatgen
data_Li2Zr2O5
_symmetry_space_group_name_H-M   'P 1'
_cell_length_a   5.60421374
_cell_length_b   8.20077357
_cell_length_c   11.36465134
_cell_angle_alpha   90.00000000
_cell_angle_beta   90.00000000
_cell_angle_gamma   90.00000000
_symmetry_Int_Tables_number   1
_chemical_formula_structural   Li2Zr2O5
_chemical_formula_sum   'Li8 Zr8 O20'
_cell_volume   522.30673718
_cell_formula_units_Z   4
loop_
 _symmetry_equiv_pos_site_id
 _symmetry_equiv_pos_as_xyz
  1  'x, y, z'
loop_
 _atom_site_type_symbol
 _atom_site_label
 _atom_site_symmetry_multiplicity
 _atom_site_fract_x
 _atom_site_fract_y
 _atom_site_fract_z
 _atom_site_occupancy
  Li  Li1  1  0.049714  0.412601  0.911843  1
  Li  Li2  1  0.049714  0.087399  0.588157  1
  Li  Li3  1  0.450286  0.412601  0.088157  1
  Li  Li4  1  0.450286  0.087399  0.411843  1
  Li  Li5  1  0.950286  0.587399  0.088157  1
  Li  Li6  1  0.950286  0.912601  0.411843  1
  Li  Li7  1  0.549714  0.587399  0.911843  1
  Li  Li8  1  0.549714  0.912601  0.588157  1
  Zr  Zr9  1  0.534695  0.338704  0.588039  1
  Zr  Zr10  1  0.534695  0.161296  0.911961  1
  Zr  Zr11  1  0.965305  0.338704  0.411961  1
  Zr  Zr12  1  0.965305  0.161296  0.088039  1
  Zr  Zr13  1  0.465305  0.661296  0.411961  1
  Zr  Zr14  1  0.465305  0.838704  0.088039  1
  Zr  Zr15  1  0.034695  0.661296  0.588039  1
  Zr  Zr16  1  0.034695  0.838704  0.911961  1
  O  O17  1  0.479910  0.250000  0.750000  1
  O  O18  1  0.020090  0.250000  0.250000  1
  O  O19  1  0.520090  0.750000  0.250000  1
  O  O20  1  0.979910  0.750000  0.750000  1
  O  O21  1  0.250000  0.862506  0.500000  1
  O  O22  1  0.250000  0.637494  0.000000  1
  O  O23  1  0.750000  0.137494  0.500000  1
  O  O24  1  0.750000  0.362506  0.000000  1
  O  O25  1  0.250000  0.226167  0.500000  1
  O  O26  1  0.250000  0.273833  0.000000  1
  O  O27  1  0.750000  0.773833  0.500000  1
  O  O28  1  0.750000  0.726167  0.000000  1
  O  O29  1  0.381912  0.935937  0.898775  1
  O  O30  1  0.381912  0.564063  0.601225  1
  O  O31  1  0.118088  0.935937  0.101225  1
  O  O32  1  0.118088  0.564063  0.398775  1
  O  O33  1  0.881912  0.435937  0.601225  1
  O  O34  1  0.881912  0.064063  0.898775  1
  O  O35  1  0.618088  0.435937  0.398775  1
  O  O36  1  0.618088  0.064063  0.101225  1
