# generated using pymatgen
data_Li(CoO2)3
_symmetry_space_group_name_H-M   'P 1'
_cell_length_a   4.96311982
_cell_length_b   4.91377851
_cell_length_c   10.46737889
_cell_angle_alpha   76.76291220
_cell_angle_beta   76.54042399
_cell_angle_gamma   59.90962479
_symmetry_Int_Tables_number   1
_chemical_formula_structural   Li(CoO2)3
_chemical_formula_sum   'Li2 Co6 O12'
_cell_volume   212.88565831
_cell_formula_units_Z   2
loop_
 _symmetry_equiv_pos_site_id
 _symmetry_equiv_pos_as_xyz
  1  'x, y, z'
loop_
 _atom_site_type_symbol
 _atom_site_label
 _atom_site_symmetry_multiplicity
 _atom_site_fract_x
 _atom_site_fract_y
 _atom_site_fract_z
 _atom_site_occupancy
  Li  Li1  1  0.076317  0.755415  0.754952  1
  Li  Li2  1  0.905813  0.261288  0.254016  1
  Co  Co3  1  0.000640  0.336699  0.995744  1
  Co  Co4  1  0.168970  0.833814  0.492884  1
  Co  Co5  1  0.334445  0.662613  0.004396  1
  Co  Co6  1  0.494382  0.160052  0.508481  1
  Co  Co7  1  0.668535  0.994035  0.002956  1
  Co  Co8  1  0.833877  0.499742  0.502239  1
  O  O9  1  0.031918  0.018255  0.905461  1
  O  O10  1  0.116509  0.493281  0.599536  1
  O  O11  1  0.180130  0.204110  0.401117  1
  O  O12  1  0.297734  0.974072  0.095161  1
  O  O13  1  0.367321  0.367264  0.905694  1
  O  O14  1  0.456133  0.791832  0.598063  1
  O  O15  1  0.544283  0.526820  0.403441  1
  O  O16  1  0.643802  0.297479  0.095883  1
  O  O17  1  0.713043  0.708485  0.899149  1
  O  O18  1  0.879037  0.855640  0.401395  1
  O  O19  1  0.829039  0.124195  0.598155  1
  O  O20  1  0.951547  0.628383  0.101311  1
