# generated using pymatgen
data_Li2(CoO2)3
_symmetry_space_group_name_H-M   'P 1'
_cell_length_a   9.96051660
_cell_length_b   29.86308652
_cell_length_c   19.71918477
_cell_angle_alpha   8.18465761
_cell_angle_beta   14.12402112
_cell_angle_gamma   16.27482258
_symmetry_Int_Tables_number   1
_chemical_formula_structural   Li2(CoO2)3
_chemical_formula_sum   'Li4 Co6 O12'
_cell_volume   203.76679088
_cell_formula_units_Z   2
loop_
 _symmetry_equiv_pos_site_id
 _symmetry_equiv_pos_as_xyz
  1  'x, y, z'
loop_
 _atom_site_type_symbol
 _atom_site_label
 _atom_site_symmetry_multiplicity
 _atom_site_fract_x
 _atom_site_fract_y
 _atom_site_fract_z
 _atom_site_occupancy
  Li  Li1  1  0.083976  0.999185  0.085386  1
  Li  Li2  1  0.085897  0.666781  0.084590  1
  Li  Li3  1  0.913918  0.333491  0.916218  1
  Li  Li4  1  0.920938  0.668121  0.909603  1
  Co  Co5  1  0.991846  0.999117  0.001280  1
  Co  Co6  1  0.008289  0.330745  0.005888  1
  Co  Co7  1  0.496242  0.001831  0.499113  1
  Co  Co8  1  0.004821  0.667452  0.995933  1
  Co  Co9  1  0.503644  0.331489  0.500866  1
  Co  Co10  1  0.500018  0.666706  0.499952  1
  O  O11  1  0.193395  -0.001298  0.206180  1
  O  O12  1  0.391386  0.983250  0.383019  1
  O  O13  1  0.213006  0.343338  0.180145  1
  O  O14  1  0.340630  0.329745  0.386985  1
  O  O15  1  0.199132  0.661401  0.208774  1
  O  O16  1  0.615542  0.342127  0.627048  1
  O  O17  1  0.372638  0.683875  0.339453  1
  O  O18  1  0.806084  0.335024  0.793296  1
  O  O19  1  0.620129  0.659998  0.645828  1
  O  O20  1  0.801671  0.671828  0.790967  1
  O  O21  1  0.650288  0.002822  0.618959  1
  O  O22  1  0.786511  0.989641  0.820515  1
