# generated using pymatgen
data_Li4Co7O16
_symmetry_space_group_name_H-M   'P 1'
_cell_length_a   8.04508663
_cell_length_b   8.09718460
_cell_length_c   8.10579498
_cell_angle_alpha   90.00534296
_cell_angle_beta   89.99068790
_cell_angle_gamma   89.63792495
_symmetry_Int_Tables_number   1
_chemical_formula_structural   Li4Co7O16
_chemical_formula_sum   'Li8 Co14 O32'
_cell_volume   528.02161456
_cell_formula_units_Z   2
loop_
 _symmetry_equiv_pos_site_id
 _symmetry_equiv_pos_as_xyz
  1  'x, y, z'
loop_
 _atom_site_type_symbol
 _atom_site_label
 _atom_site_symmetry_multiplicity
 _atom_site_fract_x
 _atom_site_fract_y
 _atom_site_fract_z
 _atom_site_occupancy
  Li  Li1  1  0.995141  0.498960  0.501879  1
  Li  Li2  1  0.249137  0.749240  0.748001  1
  Li  Li3  1  0.250955  0.250795  0.248116  1
  Li  Li4  1  0.504085  0.500716  0.001829  1
  Li  Li5  1  0.628626  0.623625  0.627370  1
  Li  Li6  1  0.752945  0.744800  0.251925  1
  Li  Li7  1  0.747216  0.255140  0.752324  1
  Li  Li8  1  0.871451  0.376362  0.127176  1
  Co  Co9  1  0.126592  0.624829  0.123266  1
  Co  Co10  1  0.122219  0.380251  0.873057  1
  Co  Co11  1  0.120173  0.123480  0.620952  1
  Co  Co12  1  0.379806  0.876587  0.121268  1
  Co  Co13  1  0.377781  0.620073  0.373289  1
  Co  Co14  1  0.373402  0.375279  0.623032  1
  Co  Co15  1  0.494935  0.992514  0.500647  1
  Co  Co16  1  0.622168  0.879337  0.881914  1
  Co  Co17  1  0.622137  0.117173  0.125344  1
  Co  Co18  1  0.621921  0.367853  0.369745  1
  Co  Co19  1  0.878082  0.632242  0.869845  1
  Co  Co20  1  0.877914  0.882737  0.625307  1
  Co  Co21  1  0.877842  0.120470  0.381653  1
  Co  Co22  1  0.005610  0.007383  0.000333  1
  O  O23  1  0.100516  0.904256  0.637535  1
  O  O24  1  0.098129  0.136255  0.400416  1
  O  O25  1  0.113592  0.614004  0.886914  1
  O  O26  1  0.136867  0.398956  0.096180  1
  O  O27  1  0.112097  0.144828  0.859320  1
  O  O28  1  0.137907  0.357461  0.638769  1
  O  O29  1  0.144525  0.859095  0.109400  1
  O  O30  1  0.148628  0.613524  0.343448  1
  O  O31  1  0.351306  0.386556  0.843107  1
  O  O32  1  0.355389  0.141114  0.608884  1
  O  O33  1  0.361984  0.642695  0.139144  1
  O  O34  1  0.387862  0.855517  0.359596  1
  O  O35  1  0.363646  0.601286  0.596413  1
  O  O36  1  0.386439  0.386371  0.386790  1
  O  O37  1  0.401924  0.863156  0.900753  1
  O  O38  1  0.399467  0.095770  0.137526  1
  O  O39  1  0.600818  0.598824  0.369385  1
  O  O40  1  0.595472  0.370111  0.604252  1
  O  O41  1  0.614417  0.883666  0.113154  1
  O  O42  1  0.634332  0.102341  0.906072  1
  O  O43  1  0.616879  0.347934  0.146362  1
  O  O44  1  0.637116  0.129383  0.363970  1
  O  O45  1  0.654163  0.648400  0.879972  1
  O  O46  1  0.636185  0.882527  0.645910  1
  O  O47  1  0.863786  0.117184  0.145683  1
  O  O48  1  0.845918  0.351409  0.379592  1
  O  O49  1  0.862873  0.870754  0.863923  1
  O  O50  1  0.882914  0.651974  0.646436  1
  O  O51  1  0.865413  0.897466  0.406026  1
  O  O52  1  0.885565  0.116258  0.612950  1
  O  O53  1  0.904551  0.629773  0.104302  1
  O  O54  1  0.899184  0.401351  0.869586  1
