# generated using pymatgen
data_Li11(CoO4)2
_symmetry_space_group_name_H-M   'P 1'
_cell_length_a   6.58302968
_cell_length_b   6.58346168
_cell_length_c   9.33611188
_cell_angle_alpha   90.06669216
_cell_angle_beta   89.97327120
_cell_angle_gamma   91.32921831
_symmetry_Int_Tables_number   1
_chemical_formula_structural   Li11(CoO4)2
_chemical_formula_sum   'Li22 Co4 O16'
_cell_volume   404.50971463
_cell_formula_units_Z   2
loop_
 _symmetry_equiv_pos_site_id
 _symmetry_equiv_pos_as_xyz
  1  'x, y, z'
loop_
 _atom_site_type_symbol
 _atom_site_label
 _atom_site_symmetry_multiplicity
 _atom_site_fract_x
 _atom_site_fract_y
 _atom_site_fract_z
 _atom_site_occupancy
  Li  Li1  1  0.040502  0.538082  0.372399  1
  Li  Li2  1  0.034331  0.536970  0.877690  1
  Li  Li3  1  0.023308  0.977106  0.374327  1
  Li  Li4  1  0.272150  0.271796  0.349475  1
  Li  Li5  1  0.246380  0.252864  0.094235  1
  Li  Li6  1  0.227908  0.227692  0.850422  1
  Li  Li7  1  0.252747  0.247276  0.593285  1
  Li  Li8  1  0.479692  0.520729  0.875663  1
  Li  Li9  1  0.461891  0.959725  0.376815  1
  Li  Li10  1  0.463306  0.965298  0.873105  1
  Li  Li11  1  0.535866  0.036169  0.124611  1
  Li  Li12  1  0.528094  0.470608  0.142965  1
  Li  Li13  1  0.535128  0.035589  0.625070  1
  Li  Li14  1  0.531988  0.469696  0.607635  1
  Li  Li15  1  0.752617  0.746872  0.155976  1
  Li  Li16  1  0.728044  0.728509  0.400073  1
  Li  Li17  1  0.747200  0.753077  0.656551  1
  Li  Li18  1  0.771971  0.772526  0.900159  1
  Li  Li19  1  0.970329  0.028475  0.104598  1
  Li  Li20  1  0.969590  0.032281  0.644704  1
  Li  Li21  1  0.966274  0.466746  0.124968  1
  Li  Li22  1  0.961759  0.461726  0.625352  1
  Co  Co23  1  0.250911  0.751035  0.123758  1
  Co  Co24  1  0.250587  0.750584  0.626142  1
  Co  Co25  1  0.746268  0.253625  0.373955  1
  Co  Co26  1  0.753872  0.245867  0.876062  1
  O  O27  1  0.017196  0.251271  0.480223  1
  O  O28  1  0.009956  0.267576  0.982760  1
  O  O29  1  0.247811  0.494746  0.725027  1
  O  O30  1  0.251219  0.005080  0.223680  1
  O  O31  1  0.257490  0.004476  0.717938  1
  O  O32  1  0.242994  0.496106  0.217117  1
  O  O33  1  0.481707  0.248224  0.980341  1
  O  O34  1  0.489750  0.232504  0.482277  1
  O  O35  1  0.505437  0.751632  0.025452  1
  O  O36  1  0.503985  0.757107  0.532967  1
  O  O37  1  0.732662  0.990023  0.768456  1
  O  O38  1  0.748012  0.982020  0.269095  1
  O  O39  1  0.767606  0.510413  0.266745  1
  O  O40  1  0.751054  0.517192  0.770331  1
  O  O41  1  0.995445  0.742568  0.031961  1
  O  O42  1  0.995140  0.748320  0.525634  1
