# generated using pymatgen
data_Li3(CoO2)4
_symmetry_space_group_name_H-M   'P 1'
_cell_length_a   5.74022808
_cell_length_b   5.66820615
_cell_length_c   5.88786395
_cell_angle_alpha   119.71591425
_cell_angle_beta   58.67582776
_cell_angle_gamma   91.59198861
_symmetry_Int_Tables_number   1
_chemical_formula_structural   Li3(CoO2)4
_chemical_formula_sum   'Li3 Co4 O8'
_cell_volume   135.13027938
_cell_formula_units_Z   1
loop_
 _symmetry_equiv_pos_site_id
 _symmetry_equiv_pos_as_xyz
  1  'x, y, z'
loop_
 _atom_site_type_symbol
 _atom_site_label
 _atom_site_symmetry_multiplicity
 _atom_site_fract_x
 _atom_site_fract_y
 _atom_site_fract_z
 _atom_site_occupancy
  Li  Li1  1  0.997128  0.502111  0.004321  1
  Li  Li2  1  0.498524  0.002122  0.003883  1
  Li  Li3  1  0.492595  0.507832  0.514668  1
  Co  Co4  1  0.999308  0.000897  0.501713  1
  Co  Co5  1  0.997039  0.002473  0.003502  1
  Co  Co6  1  0.999291  0.500960  0.501868  1
  Co  Co7  1  0.499217  0.500734  0.001979  1
  O  O8  1  0.217433  0.256388  0.498354  1
  O  O9  1  0.228305  0.281818  0.053686  1
  O  O10  1  0.241364  0.740773  0.476057  1
  O  O11  1  0.235958  0.764245  0.044372  1
  O  O12  1  0.763146  0.236695  0.957387  1
  O  O13  1  0.757181  0.260961  0.527551  1
  O  O14  1  0.769687  0.720092  0.950379  1
  O  O15  1  0.780909  0.745725  0.505751  1
