# generated using pymatgen
data_Li(CoO2)4
_symmetry_space_group_name_H-M   'P 1'
_cell_length_a   5.63594306
_cell_length_b   5.71382576
_cell_length_c   5.71382614
_cell_angle_alpha   59.99999399
_cell_angle_beta   120.45818576
_cell_angle_gamma   120.45819578
_symmetry_Int_Tables_number   1
_chemical_formula_structural   Li(CoO2)4
_chemical_formula_sum   'Li1 Co4 O8'
_cell_volume   129.20011166
_cell_formula_units_Z   1
loop_
 _symmetry_equiv_pos_site_id
 _symmetry_equiv_pos_as_xyz
  1  'x, y, z'
loop_
 _atom_site_type_symbol
 _atom_site_label
 _atom_site_symmetry_multiplicity
 _atom_site_fract_x
 _atom_site_fract_y
 _atom_site_fract_z
 _atom_site_occupancy
  Li  Li1  1  0.500000  0.000000  0.500000  1
  Co  Co2  1  0.500000  0.500000  0.500000  1
  Co  Co3  1  0.500000  0.500000  0.000000  1
  Co  Co4  1  0.000000  0.500000  0.000000  1
  Co  Co5  1  0.500000  0.000000  0.000000  1
  O  O6  1  0.730736  0.710656  0.760040  1
  O  O7  1  0.704494  0.734832  0.234832  1
  O  O8  1  0.269264  0.739960  0.789344  1
  O  O9  1  0.730736  0.260040  0.760040  1
  O  O10  1  0.269264  0.739960  0.239960  1
  O  O11  1  0.730736  0.260040  0.210656  1
  O  O12  1  0.295506  0.265168  0.765168  1
  O  O13  1  0.269264  0.289344  0.239960  1
