# generated using pymatgen
data_KC
_symmetry_space_group_name_H-M   'P 1'
_cell_length_a   4.36414414
_cell_length_b   4.36414414
_cell_length_c   7.56176620
_cell_angle_alpha   89.78727213
_cell_angle_beta   107.02349014
_cell_angle_gamma   119.94447527
_symmetry_Int_Tables_number   1
_chemical_formula_structural   KC
_chemical_formula_sum   'K2 C2'
_cell_volume   117.55025633
_cell_formula_units_Z   2
loop_
 _symmetry_equiv_pos_site_id
 _symmetry_equiv_pos_as_xyz
  1  'x, y, z'
loop_
 _atom_site_type_symbol
 _atom_site_label
 _atom_site_symmetry_multiplicity
 _atom_site_fract_x
 _atom_site_fract_y
 _atom_site_fract_z
 _atom_site_occupancy
  K  K1  1  0.491509  0.241509  0.750000  1
  K  K2  1  0.508491  0.758491  0.250000  1
  C  C3  1  0.000000  0.500000  0.500000  1
  C  C4  1  0.000000  0.000000  0.000000  1
