# generated using pymatgen
data_KN
_symmetry_space_group_name_H-M   'P 1'
_cell_length_a   4.11185079
_cell_length_b   4.09789074
_cell_length_c   5.78762670
_cell_angle_alpha   90.17795920
_cell_angle_beta   90.00000000
_cell_angle_gamma   90.00000000
_symmetry_Int_Tables_number   1
_chemical_formula_structural   KN
_chemical_formula_sum   'K2 N2'
_cell_volume   97.52054923
_cell_formula_units_Z   2
loop_
 _symmetry_equiv_pos_site_id
 _symmetry_equiv_pos_as_xyz
  1  'x, y, z'
loop_
 _atom_site_type_symbol
 _atom_site_label
 _atom_site_symmetry_multiplicity
 _atom_site_fract_x
 _atom_site_fract_y
 _atom_site_fract_z
 _atom_site_occupancy
  K  K1  1  0.750000  0.765377  0.748534  1
  K  K2  1  0.250000  0.234623  0.251466  1
  N  N3  1  0.750000  0.731307  0.247196  1
  N  N4  1  0.250000  0.268693  0.752804  1
