# generated using pymatgen
data_Li4Co13O28
_symmetry_space_group_name_H-M   'P 1'
_cell_length_a   8.12001926
_cell_length_b   8.60839610
_cell_length_c   7.47781264
_cell_angle_alpha   104.30127178
_cell_angle_beta   104.94881352
_cell_angle_gamma   100.21513250
_symmetry_Int_Tables_number   1
_chemical_formula_structural   Li4Co13O28
_chemical_formula_sum   'Li4 Co13 O28'
_cell_volume   472.86085775
_cell_formula_units_Z   1
loop_
 _symmetry_equiv_pos_site_id
 _symmetry_equiv_pos_as_xyz
  1  'x, y, z'
loop_
 _atom_site_type_symbol
 _atom_site_label
 _atom_site_symmetry_multiplicity
 _atom_site_fract_x
 _atom_site_fract_y
 _atom_site_fract_z
 _atom_site_occupancy
  Li  Li1  1  0.269149  0.208775  0.917006  1
  Li  Li2  1  0.865227  0.649828  0.779036  1
  Li  Li3  1  0.343180  0.139903  0.288477  1
  Li  Li4  1  0.715952  0.803565  0.077523  1
  Co  Co5  1  0.790794  0.208298  0.932004  1
  Co  Co6  1  0.570532  0.424540  0.855263  1
  Co  Co7  1  0.917529  0.057080  0.641975  1
  Co  Co8  1  0.348567  0.635307  0.780560  1
  Co  Co9  1  0.713539  0.281925  0.570373  1
  Co  Co10  1  0.145200  0.860461  0.720453  1
  Co  Co11  1  0.499606  0.499487  0.499656  1
  Co  Co12  1  0.866487  0.144853  0.285911  1
  Co  Co13  1  0.289554  0.719150  0.430649  1
  Co  Co14  1  0.656766  0.366624  0.219999  1
  Co  Co15  1  0.070785  0.930560  0.353170  1
  Co  Co16  1  0.428196  0.571058  0.143174  1
  Co  Co17  1  0.212002  0.790934  0.071711  1
  O  O18  1  -0.001782  0.194709  0.892702  1
  O  O19  1  0.563437  0.245505  0.951477  1
  O  O20  1  0.348510  0.446417  0.874007  1
  O  O21  1  0.145822  0.049803  0.631718  1
  O  O22  1  0.788209  0.402477  0.836411  1
  O  O23  1  0.704261  0.090874  0.659827  1
  O  O24  1  0.239880  0.972306  0.980515  1
  O  O25  1  0.128735  0.667398  0.800926  1
  O  O26  1  0.582418  0.616012  0.776536  1
  O  O27  1  0.492462  0.305748  0.583836  1
  O  O28  1  0.931880  0.250017  0.556136  1
  O  O29  1  0.365388  0.826871  0.702856  1
  O  O30  1  0.276961  0.529681  0.515701  1
  O  O31  1  0.085835  0.124254  0.296638  1
  O  O32  1  0.916158  0.868807  0.701304  1
  O  O33  1  0.728175  0.475127  0.492524  1
  O  O34  1  0.636483  0.175445  0.300179  1
  O  O35  1  0.072072  0.747518  0.450593  1
  O  O36  1  0.507574  0.688111  0.409249  1
  O  O37  1  0.423748  0.377410  0.227103  1
  O  O38  1  0.871293  0.335057  0.199476  1
  O  O39  1  0.766711  0.035579  0.025581  1
  O  O40  1  0.297726  0.910640  0.340947  1
  O  O41  1  0.210828  0.602868  0.162601  1
  O  O42  1  0.844212  0.949995  0.363045  1
  O  O43  1  0.651371  0.550740  0.123497  1
  O  O44  1  0.435299  0.755743  0.050115  1
  O  O45  1  0.997555  0.798253  0.098984  1
