# generated using pymatgen
data_K3Rh
_symmetry_space_group_name_H-M   'P 1'
_cell_length_a   5.65959907
_cell_length_b   5.76862974
_cell_length_c   6.31976112
_cell_angle_alpha   89.99999999
_cell_angle_beta   87.26442785
_cell_angle_gamma   120.63934342
_symmetry_Int_Tables_number   1
_chemical_formula_structural   K3Rh
_chemical_formula_sum   'K3 Rh1'
_cell_volume   177.25002554
_cell_formula_units_Z   1
loop_
 _symmetry_equiv_pos_site_id
 _symmetry_equiv_pos_as_xyz
  1  'x, y, z'
loop_
 _atom_site_type_symbol
 _atom_site_label
 _atom_site_symmetry_multiplicity
 _atom_site_fract_x
 _atom_site_fract_y
 _atom_site_fract_z
 _atom_site_occupancy
  K  K1  1  -0.000000  -0.000000  0.500000  1
  K  K2  1  0.676608  0.338304  0.883218  1
  K  K3  1  0.323392  0.661696  0.116782  1
  Rh  Rh4  1  -0.000000  -0.000000  0.000000  1
