# generated using pymatgen
data_Li4Co15O28
_symmetry_space_group_name_H-M   'P 1'
_cell_length_a   8.17327352
_cell_length_b   8.72043566
_cell_length_c   7.69778352
_cell_angle_alpha   107.06780206
_cell_angle_beta   78.10015337
_cell_angle_gamma   74.07330167
_symmetry_Int_Tables_number   1
_chemical_formula_structural   Li4Co15O28
_chemical_formula_sum   'Li4 Co15 O28'
_cell_volume   479.19438118
_cell_formula_units_Z   1
loop_
 _symmetry_equiv_pos_site_id
 _symmetry_equiv_pos_as_xyz
  1  'x, y, z'
loop_
 _atom_site_type_symbol
 _atom_site_label
 _atom_site_symmetry_multiplicity
 _atom_site_fract_x
 _atom_site_fract_y
 _atom_site_fract_z
 _atom_site_occupancy
  Li  Li1  1  0.272888  0.284390  0.557081  1
  Li  Li2  1  0.430327  0.424575  0.852865  1
  Li  Li3  1  0.569673  0.575425  0.147135  1
  Li  Li4  1  0.727112  0.715610  0.442919  1
  Co  Co5  1  0.000000  0.000000  0.000000  1
  Co  Co6  1  0.071553  0.071946  0.640159  1
  Co  Co7  1  0.074283  0.571950  0.138936  1
  Co  Co8  1  0.214329  0.215242  0.929136  1
  Co  Co9  1  0.500000  0.000000  0.000000  1
  Co  Co10  1  0.354798  0.356874  0.216543  1
  Co  Co11  1  0.211029  0.711731  0.431597  1
  Co  Co12  1  0.639072  0.143986  0.290552  1
  Co  Co13  1  0.500000  0.500000  0.500000  1
  Co  Co14  1  0.360928  0.856014  0.709448  1
  Co  Co15  1  0.788971  0.288269  0.568403  1
  Co  Co16  1  0.645202  0.643126  0.783457  1
  Co  Co17  1  0.785671  0.784758  0.070864  1
  Co  Co18  1  0.925717  0.428050  0.861064  1
  Co  Co19  1  0.928447  0.928054  0.359841  1
  O  O20  1  0.017181  0.278516  0.599913  1
  O  O21  1  0.012192  0.788288  0.092738  1
  O  O22  1  0.130341  0.365547  0.184299  1
  O  O23  1  0.267066  0.005752  0.971931  1
  O  O24  1  0.162565  0.416038  0.875018  1
  O  O25  1  0.298826  0.066456  0.667366  1
  O  O26  1  0.152954  0.919780  0.386152  1
  O  O27  1  0.306616  0.561046  0.165093  1
  O  O28  1  0.126966  0.868182  0.699149  1
  O  O29  1  0.273688  0.499977  0.473465  1
  O  O30  1  0.414566  0.150776  0.263895  1
  O  O31  1  0.439052  0.210234  0.953926  1
  O  O32  1  0.582836  0.349232  0.240660  1
  O  O33  1  0.445737  0.705219  0.449121  1
  O  O34  1  0.554263  0.294781  0.550879  1
  O  O35  1  0.417164  0.650768  0.759340  1
  O  O36  1  0.560948  0.789766  0.046074  1
  O  O37  1  0.585434  0.849224  0.736105  1
  O  O38  1  0.726312  0.500023  0.526535  1
  O  O39  1  0.873034  0.131818  0.300851  1
  O  O40  1  0.693384  0.438954  0.834907  1
  O  O41  1  0.847046  0.080220  0.613848  1
  O  O42  1  0.701174  0.933544  0.332634  1
  O  O43  1  0.837435  0.583962  0.124982  1
  O  O44  1  0.732934  0.994248  0.028069  1
  O  O45  1  0.869659  0.634453  0.815701  1
  O  O46  1  0.987808  0.211712  0.907262  1
  O  O47  1  0.982819  0.721484  0.400087  1
