# generated using pymatgen
data_KN2
_symmetry_space_group_name_H-M   'P 1'
_cell_length_a   2.96374522
_cell_length_b   5.61596003
_cell_length_c   5.63187944
_cell_angle_alpha   90.00000000
_cell_angle_beta   90.00000000
_cell_angle_gamma   105.29970226
_symmetry_Int_Tables_number   1
_chemical_formula_structural   KN2
_chemical_formula_sum   'K2 N4'
_cell_volume   90.41634076
_cell_formula_units_Z   2
loop_
 _symmetry_equiv_pos_site_id
 _symmetry_equiv_pos_as_xyz
  1  'x, y, z'
loop_
 _atom_site_type_symbol
 _atom_site_label
 _atom_site_symmetry_multiplicity
 _atom_site_fract_x
 _atom_site_fract_y
 _atom_site_fract_z
 _atom_site_occupancy
  K  K1  1  0.875073  0.750146  0.780455  1
  K  K2  1  0.124927  0.249854  0.280455  1
  N  N3  1  0.859751  0.719502  0.283926  1
  N  N4  1  0.140249  0.280498  0.783926  1
  N  N5  1  0.612824  0.225648  0.812619  1
  N  N6  1  0.387176  0.774352  0.312619  1
