# generated using pymatgen
data_Li7(CoO3)2
_symmetry_space_group_name_H-M   'P 1'
_cell_length_a   5.28860679
_cell_length_b   5.35241312
_cell_length_c   5.84703042
_cell_angle_alpha   63.06259737
_cell_angle_beta   92.60241345
_cell_angle_gamma   97.73981821
_symmetry_Int_Tables_number   1
_chemical_formula_structural   Li7(CoO3)2
_chemical_formula_sum   'Li7 Co2 O6'
_cell_volume   146.18613433
_cell_formula_units_Z   1
loop_
 _symmetry_equiv_pos_site_id
 _symmetry_equiv_pos_as_xyz
  1  'x, y, z'
loop_
 _atom_site_type_symbol
 _atom_site_label
 _atom_site_symmetry_multiplicity
 _atom_site_fract_x
 _atom_site_fract_y
 _atom_site_fract_z
 _atom_site_occupancy
  Li  Li1  1  0.144066  0.536811  0.149298  1
  Li  Li2  1  0.119764  0.010345  0.811643  1
  Li  Li3  1  0.507390  0.164514  0.059684  1
  Li  Li4  1  0.601033  0.727955  0.838623  1
  Li  Li5  1  0.963968  0.062709  0.374985  1
  Li  Li6  1  0.814830  0.781733  0.174664  1
  Li  Li7  1  0.897916  0.426902  0.829203  1
  Co  Co8  1  0.619106  0.302776  0.499392  1
  Co  Co9  1  0.311981  0.673898  0.498371  1
  O  O10  1  0.186422  0.907337  0.185874  1
  O  O11  1  0.230949  0.643279  0.807980  1
  O  O12  1  0.248220  0.306973  0.488876  1
  O  O13  1  0.686185  0.704920  0.511177  1
  O  O14  1  0.764211  0.409570  0.155792  1
  O  O15  1  0.741239  0.072005  0.840526  1
