# generated using pymatgen
data_KC2
_symmetry_space_group_name_H-M   'P 1'
_cell_length_a   4.38206790
_cell_length_b   4.38206790
_cell_length_c   7.45071519
_cell_angle_alpha   90.00000000
_cell_angle_beta   90.00000000
_cell_angle_gamma   90.00000000
_symmetry_Int_Tables_number   1
_chemical_formula_structural   KC2
_chemical_formula_sum   'K2 C4'
_cell_volume   143.07250060
_cell_formula_units_Z   2
loop_
 _symmetry_equiv_pos_site_id
 _symmetry_equiv_pos_as_xyz
  1  'x, y, z'
loop_
 _atom_site_type_symbol
 _atom_site_label
 _atom_site_symmetry_multiplicity
 _atom_site_fract_x
 _atom_site_fract_y
 _atom_site_fract_z
 _atom_site_occupancy
  K  K1  1  -0.000000  0.500000  0.245797  1
  K  K2  1  0.500000  0.000000  0.754203  1
  C  C3  1  0.000000  0.500000  0.661475  1
  C  C4  1  0.500000  0.000000  0.338525  1
  C  C5  1  -0.000000  0.500000  0.831332  1
  C  C6  1  0.500000  0.000000  0.168668  1
