# generated using pymatgen
data_Li20Co21O40
_symmetry_space_group_name_H-M   'P 1'
_cell_length_a   28.82117345
_cell_length_b   15.23983807
_cell_length_c   9.96820474
_cell_angle_alpha   29.23866234
_cell_angle_beta   30.05787924
_cell_angle_gamma   19.18949428
_symmetry_Int_Tables_number   1
_chemical_formula_structural   Li20Co21O40
_chemical_formula_sum   'Li20 Co21 O40'
_cell_volume   679.15520283
_cell_formula_units_Z   1
loop_
 _symmetry_equiv_pos_site_id
 _symmetry_equiv_pos_as_xyz
  1  'x, y, z'
loop_
 _atom_site_type_symbol
 _atom_site_label
 _atom_site_symmetry_multiplicity
 _atom_site_fract_x
 _atom_site_fract_y
 _atom_site_fract_z
 _atom_site_occupancy
  Li  Li1  1  0.997708  0.005461  0.001111  1
  Li  Li2  1  0.096962  0.003385  0.002089  1
  Li  Li3  1  0.198001  0.998168  0.998995  1
  Li  Li4  1  0.248650  0.043191  0.040480  1
  Li  Li5  1  0.379849  0.048871  0.045182  1
  Li  Li6  1  0.193204  0.518741  0.995608  1
  Li  Li7  1  0.505410  0.996375  0.996634  1
  Li  Li8  1  0.603983  0.994335  0.989015  1
  Li  Li9  1  0.395515  0.516083  0.989160  1
  Li  Li10  1  0.705935  0.996329  0.991440  1
  Li  Li11  1  0.092173  0.001997  0.518483  1
  Li  Li12  1  0.803046  0.989090  0.999296  1
  Li  Li13  1  0.657691  0.369604  0.031213  1
  Li  Li14  1  0.907921  0.989265  0.997071  1
  Li  Li15  1  0.295954  0.000311  0.517427  1
  Li  Li16  1  0.799938  0.497899  0.003556  1
  Li  Li17  1  0.518948  0.041969  0.366357  1
  Li  Li18  1  0.990649  0.516625  0.998977  1
  Li  Li19  1  0.700665  0.988238  0.515515  1
  Li  Li20  1  0.898522  0.004088  0.499900  1
  Co  Co21  1  0.097472  0.503134  0.002868  1
  Co  Co22  1  0.196948  0.004614  0.502952  1
  Co  Co23  1  0.098822  0.503014  0.497533  1
  Co  Co24  1  0.396322  0.006426  0.498102  1
  Co  Co25  1  0.298748  0.502831  0.998270  1
  Co  Co26  1  0.199057  0.501890  0.497906  1
  Co  Co27  1  0.298249  0.503290  0.500402  1
  Co  Co28  1  0.600045  0.001293  0.498232  1
  Co  Co29  1  0.496709  0.503837  0.002577  1
  Co  Co30  1  0.397574  0.504514  0.500048  1
  Co  Co31  1  0.499904  0.499686  0.502068  1
  Co  Co32  1  0.701632  0.494316  0.005652  1
  Co  Co33  1  0.800014  -0.000819  0.502388  1
  Co  Co34  1  0.598759  0.501016  0.502744  1
  Co  Co35  1  0.702450  0.496560  0.497052  1
  Co  Co36  1  0.902726  0.497047  0.997188  1
  Co  Co37  1  0.449981  0.874128  0.876702  1
  Co  Co38  1  0.003004  0.996464  0.496505  1
  Co  Co39  1  0.804632  0.492500  0.497555  1
  Co  Co40  1  0.899322  0.499332  0.503182  1
  Co  Co41  1  0.998146  0.502738  0.501663  1
  O  O42  1  0.094130  0.262357  0.263437  1
  O  O43  1  0.004153  0.261118  0.718509  1
  O  O44  1  0.183304  0.265741  0.265045  1
  O  O45  1  0.087903  0.283477  0.734642  1
  O  O46  1  0.293930  0.264603  0.257904  1
  O  O47  1  0.200214  0.267776  0.716169  1
  O  O48  1  0.113301  0.717350  0.259620  1
  O  O49  1  0.385122  0.264686  0.257680  1
  O  O50  1  0.014418  0.736879  0.738315  1
  O  O51  1  0.283911  0.286907  0.741487  1
  O  O52  1  0.197414  0.735539  0.281634  1
  O  O53  1  0.104461  0.736902  0.742859  1
  O  O54  1  0.486796  0.281831  0.246687  1
  O  O55  1  0.391501  0.281525  0.728442  1
  O  O56  1  0.308751  0.721057  0.266068  1
  O  O57  1  0.582142  0.281460  0.249679  1
  O  O58  1  0.210159  0.745271  0.739311  1
  O  O59  1  0.391373  0.744482  0.289432  1
  O  O60  1  0.485654  0.286327  0.737384  1
  O  O61  1  0.303332  0.741343  0.739361  1
  O  O62  1  0.695975  0.256432  0.268668  1
  O  O63  1  0.603400  0.261230  0.718509  1
  O  O64  1  0.512779  0.716544  0.263815  1
  O  O65  1  0.786363  0.259906  0.265455  1
  O  O66  1  0.410325  0.744296  0.737684  1
  O  O67  1  0.586929  0.755943  0.275386  1
  O  O68  1  0.683298  0.275400  0.754756  1
  O  O69  1  0.488228  0.760323  0.751124  1
  O  O70  1  0.910734  0.243377  0.243403  1
  O  O71  1  0.816777  0.237395  0.724166  1
  O  O72  1  0.718137  0.724390  0.242128  1
  O  O73  1  0.990720  0.256205  0.257868  1
  O  O74  1  0.619067  0.712245  0.756170  1
  O  O75  1  0.887892  0.279146  0.743233  1
  O  O76  1  0.806360  0.722362  0.274999  1
  O  O77  1  0.710208  0.721926  0.755342  1
  O  O78  1  0.911611  0.719300  0.261967  1
  O  O79  1  0.813210  0.739497  0.738861  1
  O  O80  1  0.994407  0.741909  0.281667  1
  O  O81  1  0.905801  0.739888  0.734253  1
