# generated using pymatgen
data_K2O
_symmetry_space_group_name_H-M   'P 1'
_cell_length_a   12.89346811
_cell_length_b   6.66309836
_cell_length_c   6.47879233
_cell_angle_alpha   90.00038561
_cell_angle_beta   90.00000000
_cell_angle_gamma   90.00000000
_symmetry_Int_Tables_number   1
_chemical_formula_structural   K2O
_chemical_formula_sum   'K16 O8'
_cell_volume   556.59594002
_cell_formula_units_Z   8
loop_
 _symmetry_equiv_pos_site_id
 _symmetry_equiv_pos_as_xyz
  1  'x, y, z'
loop_
 _atom_site_type_symbol
 _atom_site_label
 _atom_site_symmetry_multiplicity
 _atom_site_fract_x
 _atom_site_fract_y
 _atom_site_fract_z
 _atom_site_occupancy
  K  K1  1  0.020915  0.739368  0.000277  1
  K  K2  1  0.020908  0.760625  0.500276  1
  K  K3  1  0.205711  0.122639  0.143531  1
  K  K4  1  0.205706  0.377348  0.643522  1
  K  K5  1  0.294294  0.877348  0.643522  1
  K  K6  1  0.294289  0.622639  0.143531  1
  K  K7  1  0.479085  0.239368  0.000277  1
  K  K8  1  0.479092  0.260625  0.500276  1
  K  K9  1  0.520908  0.739375  0.499724  1
  K  K10  1  0.520915  0.760632  0.999723  1
  K  K11  1  0.705706  0.122652  0.356478  1
  K  K12  1  0.705711  0.377361  0.856469  1
  K  K13  1  0.794294  0.622652  0.356478  1
  K  K14  1  0.794289  0.877361  0.856469  1
  K  K15  1  0.979092  0.239375  0.499724  1
  K  K16  1  0.979085  0.260632  0.999723  1
  O  O17  1  0.114978  0.030984  0.768154  1
  O  O18  1  0.114977  0.469011  0.268159  1
  O  O19  1  0.385023  0.969011  0.268159  1
  O  O20  1  0.385022  0.530984  0.768154  1
  O  O21  1  0.614977  0.030989  0.731841  1
  O  O22  1  0.614978  0.469016  0.231846  1
  O  O23  1  0.885023  0.530989  0.731841  1
  O  O24  1  0.885022  0.969016  0.231846  1
