# generated using pymatgen
data_Li5(CoO3)2
_symmetry_space_group_name_H-M   'P 1'
_cell_length_a   5.43945904
_cell_length_b   5.56644939
_cell_length_c   5.46913624
_cell_angle_alpha   118.30844274
_cell_angle_beta   89.09220521
_cell_angle_gamma   90.05775834
_symmetry_Int_Tables_number   1
_chemical_formula_structural   Li5(CoO3)2
_chemical_formula_sum   'Li5 Co2 O6'
_cell_volume   145.77064400
_cell_formula_units_Z   1
loop_
 _symmetry_equiv_pos_site_id
 _symmetry_equiv_pos_as_xyz
  1  'x, y, z'
loop_
 _atom_site_type_symbol
 _atom_site_label
 _atom_site_symmetry_multiplicity
 _atom_site_fract_x
 _atom_site_fract_y
 _atom_site_fract_z
 _atom_site_occupancy
  Li  Li1  1  0.114429  0.192365  0.491047  1
  Li  Li2  1  0.131565  0.800978  0.986608  1
  Li  Li3  1  0.561299  0.961160  0.266799  1
  Li  Li4  1  0.851059  0.205178  0.998802  1
  Li  Li5  1  0.900465  0.810690  0.502825  1
  Co  Co6  1  0.347889  0.508709  0.329032  1
  Co  Co7  1  0.660733  0.503365  0.689748  1
  O  O8  1  0.202767  0.197229  0.117544  1
  O  O9  1  0.231686  0.811236  0.334918  1
  O  O10  1  0.304731  0.519663  0.675894  1
  O  O11  1  0.687598  0.499172  0.319358  1
  O  O12  1  0.780713  0.176165  0.619409  1
  O  O13  1  0.780731  0.822498  0.932992  1
