# generated using pymatgen
data_Li5(CoO2)4
_symmetry_space_group_name_H-M   'P 1'
_cell_length_a   5.77233876
_cell_length_b   5.78511509
_cell_length_c   9.53728129
_cell_angle_alpha   90.02500778
_cell_angle_beta   89.94621741
_cell_angle_gamma   119.94226728
_symmetry_Int_Tables_number   1
_chemical_formula_structural   Li5(CoO2)4
_chemical_formula_sum   'Li10 Co8 O16'
_cell_volume   275.97592899
_cell_formula_units_Z   2
loop_
 _symmetry_equiv_pos_site_id
 _symmetry_equiv_pos_as_xyz
  1  'x, y, z'
loop_
 _atom_site_type_symbol
 _atom_site_label
 _atom_site_symmetry_multiplicity
 _atom_site_fract_x
 _atom_site_fract_y
 _atom_site_fract_z
 _atom_site_occupancy
  Li  Li1  1  0.205134  0.801898  0.057483  1
  Li  Li2  1  0.626530  0.801327  0.058470  1
  Li  Li3  1  0.344282  0.660932  0.277615  1
  Li  Li4  1  0.014318  0.000419  0.480115  1
  Li  Li5  1  0.205795  0.381318  0.058634  1
  Li  Li6  1  0.824429  0.618401  0.558858  1
  Li  Li7  1  0.403361  0.198270  0.557770  1
  Li  Li8  1  0.683343  0.338922  0.778520  1
  Li  Li9  1  0.825192  0.199024  0.558628  1
  Li  Li10  1  0.013899  0.999524  0.980227  1
  Co  Co11  1  0.350531  0.670192  0.527655  1
  Co  Co12  1  0.679998  0.329871  0.027896  1
  Co  Co13  1  0.679948  0.835714  0.786131  1
  Co  Co14  1  0.184729  0.340431  0.786178  1
  Co  Co15  1  0.844329  0.659561  0.286104  1
  Co  Co16  1  0.844236  0.164269  0.286036  1
  Co  Co17  1  0.184760  0.835852  0.786006  1
  Co  Co18  1  0.348919  0.164129  0.285953  1
  O  O19  1  0.173690  0.835639  0.399561  1
  O  O20  1  0.507649  0.985755  0.671847  1
  O  O21  1  0.037264  0.514655  0.671292  1
  O  O22  1  0.690281  0.835365  0.399435  1
  O  O23  1  0.349118  0.669743  0.894872  1
  O  O24  1  0.507172  0.514232  0.671592  1
  O  O25  1  0.853879  0.678917  0.899099  1
  O  O26  1  0.175056  0.321166  0.398980  1
  O  O27  1  0.522491  0.485462  0.171266  1
  O  O28  1  0.679482  0.330260  0.394777  1
  O  O29  1  0.012303  0.995609  0.179407  1
  O  O30  1  0.992810  0.485725  0.171322  1
  O  O31  1  0.016634  0.004346  0.679426  1
  O  O32  1  0.338190  0.164416  0.899832  1
  O  O33  1  0.521862  0.014209  0.171728  1
  O  O34  1  0.854963  0.164460  0.899564  1
