# generated using pymatgen
data_K3Hg11
_symmetry_space_group_name_H-M   'P 1'
_cell_length_a   5.32016435
_cell_length_b   9.86504506
_cell_length_c   9.86504505
_cell_angle_alpha   67.55970730
_cell_angle_beta   74.35672332
_cell_angle_gamma   74.35672330
_symmetry_Int_Tables_number   1
_chemical_formula_structural   K3Hg11
_chemical_formula_sum   'K3 Hg11'
_cell_volume   452.66589664
_cell_formula_units_Z   1
loop_
 _symmetry_equiv_pos_site_id
 _symmetry_equiv_pos_as_xyz
  1  'x, y, z'
loop_
 _atom_site_type_symbol
 _atom_site_label
 _atom_site_symmetry_multiplicity
 _atom_site_fract_x
 _atom_site_fract_y
 _atom_site_fract_z
 _atom_site_occupancy
  K  K1  1  0.693113  0.306887  0.306887  1
  K  K2  1  0.306887  0.693113  0.693113  1
  K  K3  1  0.000000  0.000000  0.000000  1
  Hg  Hg4  1  0.866170  0.418625  0.849034  1
  Hg  Hg5  1  0.669392  0.970216  0.691001  1
  Hg  Hg6  1  0.330608  0.029784  0.308999  1
  Hg  Hg7  1  0.330608  0.308999  0.029784  1
  Hg  Hg8  1  0.669392  0.691001  0.970216  1
  Hg  Hg9  1  0.500000  0.700092  0.299908  1
  Hg  Hg10  1  0.500000  0.299908  0.700092  1
  Hg  Hg11  1  0.000000  0.500000  0.500000  1
  Hg  Hg12  1  0.133830  0.581375  0.150966  1
  Hg  Hg13  1  0.133830  0.150966  0.581375  1
  Hg  Hg14  1  0.866170  0.849034  0.418625  1
