# generated using pymatgen
data_KS
_symmetry_space_group_name_H-M   'P 1'
_cell_length_a   8.58608286
_cell_length_b   8.58608286
_cell_length_c   5.92085433
_cell_angle_alpha   90.00000000
_cell_angle_beta   90.00000000
_cell_angle_gamma   119.99999999
_symmetry_Int_Tables_number   1
_chemical_formula_structural   KS
_chemical_formula_sum   'K6 S6'
_cell_volume   378.01162761
_cell_formula_units_Z   6
loop_
 _symmetry_equiv_pos_site_id
 _symmetry_equiv_pos_as_xyz
  1  'x, y, z'
loop_
 _atom_site_type_symbol
 _atom_site_label
 _atom_site_symmetry_multiplicity
 _atom_site_fract_x
 _atom_site_fract_y
 _atom_site_fract_z
 _atom_site_occupancy
  S  S1  1  0.666667  0.333333  0.181137  1
  S  S2  1  0.666667  0.333333  0.818863  1
  S  S3  1  0.333333  0.666667  0.818863  1
  S  S4  1  0.333333  0.666667  0.181137  1
  S  S5  1  0.000000  0.000000  0.679870  1
  S  S6  1  0.000000  0.000000  0.320130  1
  K  K7  1  0.000000  0.642561  0.500000  1
  K  K8  1  0.357439  0.357439  0.500000  1
  K  K9  1  0.642561  0.000000  0.500000  1
  K  K10  1  0.000000  0.307123  0.000000  1
  K  K11  1  0.692877  0.692877  0.000000  1
  K  K12  1  0.307123  0.000000  0.000000  1
