# generated using pymatgen
data_Li5CoO4
_symmetry_space_group_name_H-M   'P 1'
_cell_length_a   7.99330916
_cell_length_b   7.08101468
_cell_length_c   6.68264947
_cell_angle_alpha   90.00000000
_cell_angle_beta   90.00000000
_cell_angle_gamma   90.00000000
_symmetry_Int_Tables_number   1
_chemical_formula_structural   Li5CoO4
_chemical_formula_sum   'Li20 Co4 O16'
_cell_volume   378.24290185
_cell_formula_units_Z   4
loop_
 _symmetry_equiv_pos_site_id
 _symmetry_equiv_pos_as_xyz
  1  'x, y, z'
loop_
 _atom_site_type_symbol
 _atom_site_label
 _atom_site_symmetry_multiplicity
 _atom_site_fract_x
 _atom_site_fract_y
 _atom_site_fract_z
 _atom_site_occupancy
  Li  Li1  1  0.000000  0.500000  0.243380  1
  Li  Li2  1  0.000000  0.500000  0.756620  1
  Li  Li3  1  0.097774  0.743976  0.500000  1
  Li  Li4  1  0.155524  0.977943  0.255117  1
  Li  Li5  1  0.155524  0.977943  0.744883  1
  Li  Li6  1  0.203809  0.242096  0.500000  1
  Li  Li7  1  0.296191  0.742096  0.000000  1
  Li  Li8  1  0.344476  0.477943  0.244883  1
  Li  Li9  1  0.344476  0.477943  0.755117  1
  Li  Li10  1  0.402226  0.243976  0.000000  1
  Li  Li11  1  0.500000  0.000000  0.743380  1
  Li  Li12  1  0.500000  0.000000  0.256620  1
  Li  Li13  1  0.597774  0.756024  0.000000  1
  Li  Li14  1  0.655524  0.522057  0.244883  1
  Li  Li15  1  0.655524  0.522057  0.755117  1
  Li  Li16  1  0.703809  0.257904  0.000000  1
  Li  Li17  1  0.796191  0.757904  0.500000  1
  Li  Li18  1  0.844476  0.022057  0.255117  1
  Li  Li19  1  0.844476  0.022057  0.744883  1
  Li  Li20  1  0.902226  0.256024  0.500000  1
  Co  Co21  1  0.102805  0.232344  0.000000  1
  Co  Co22  1  0.397195  0.732344  0.500000  1
  Co  Co23  1  0.602805  0.267656  0.500000  1
  Co  Co24  1  0.897195  0.767656  0.000000  1
  O  O25  1  0.024021  0.217586  0.259572  1
  O  O26  1  0.024021  0.217586  0.740428  1
  O  O27  1  0.216184  0.468514  0.000000  1
  O  O28  1  0.236908  0.523240  0.500000  1
  O  O29  1  0.263092  0.023240  0.000000  1
  O  O30  1  0.283816  0.968514  0.500000  1
  O  O31  1  0.475979  0.717586  0.240428  1
  O  O32  1  0.475979  0.717586  0.759572  1
  O  O33  1  0.524021  0.282414  0.240428  1
  O  O34  1  0.524021  0.282414  0.759572  1
  O  O35  1  0.716184  0.031486  0.500000  1
  O  O36  1  0.736908  0.976760  0.000000  1
  O  O37  1  0.763092  0.476760  0.500000  1
  O  O38  1  0.783816  0.531486  0.000000  1
  O  O39  1  0.975979  0.782414  0.259572  1
  O  O40  1  0.975979  0.782414  0.740428  1
