# generated using pymatgen
data_KSb
_symmetry_space_group_name_H-M   'P 1'
_cell_length_a   7.08454063
_cell_length_b   7.30612696
_cell_length_c   12.41543398
_cell_angle_alpha   97.17333679
_cell_angle_beta   90.00000000
_cell_angle_gamma   90.00000000
_symmetry_Int_Tables_number   1
_chemical_formula_structural   KSb
_chemical_formula_sum   'K8 Sb8'
_cell_volume   637.59981753
_cell_formula_units_Z   8
loop_
 _symmetry_equiv_pos_site_id
 _symmetry_equiv_pos_as_xyz
  1  'x, y, z'
loop_
 _atom_site_type_symbol
 _atom_site_label
 _atom_site_symmetry_multiplicity
 _atom_site_fract_x
 _atom_site_fract_y
 _atom_site_fract_z
 _atom_site_occupancy
  K  K1  1  0.398324  0.111582  0.330222  1
  K  K2  1  0.898324  0.388418  0.169778  1
  K  K3  1  0.601676  0.888418  0.669779  1
  K  K4  1  0.101676  0.611582  0.830221  1
  K  K5  1  0.666056  0.790899  0.034439  1
  K  K6  1  0.166056  0.709101  0.465561  1
  K  K7  1  0.333944  0.209101  0.965561  1
  K  K8  1  0.833944  0.290899  0.534439  1
  Sb  Sb9  1  0.898729  0.964252  0.286792  1
  Sb  Sb10  1  0.398729  0.535748  0.213208  1
  Sb  Sb11  1  0.101271  0.035748  0.713208  1
  Sb  Sb12  1  0.601271  0.464252  0.786792  1
  Sb  Sb13  1  0.165586  0.802523  0.123554  1
  Sb  Sb14  1  0.665586  0.697477  0.376446  1
  Sb  Sb15  1  0.834414  0.197477  0.876446  1
  Sb  Sb16  1  0.334414  0.302523  0.623554  1
