# generated using pymatgen
data_K2O
_symmetry_space_group_name_H-M   'P 1'
_cell_length_a   6.32605900
_cell_length_b   5.94708109
_cell_length_c   4.23666864
_cell_angle_alpha   90.00000000
_cell_angle_beta   90.00000000
_cell_angle_gamma   90.00000000
_symmetry_Int_Tables_number   1
_chemical_formula_structural   K2O
_chemical_formula_sum   'K4 O2'
_cell_volume   159.39019297
_cell_formula_units_Z   2
loop_
 _symmetry_equiv_pos_site_id
 _symmetry_equiv_pos_as_xyz
  1  'x, y, z'
loop_
 _atom_site_type_symbol
 _atom_site_label
 _atom_site_symmetry_multiplicity
 _atom_site_fract_x
 _atom_site_fract_y
 _atom_site_fract_z
 _atom_site_occupancy
  K  K1  1  0.204383  0.828678  0.500000  1
  K  K2  1  0.295617  0.328678  0.000000  1
  K  K3  1  0.704383  0.671322  0.000000  1
  K  K4  1  0.795617  0.171322  0.500000  1
  O  O5  1  0.000000  0.000000  0.000000  1
  O  O6  1  0.500000  0.500000  0.500000  1
