# generated using pymatgen
data_Li3(CoO2)4
_symmetry_space_group_name_H-M   'P 1'
_cell_length_a   5.77274179
_cell_length_b   5.74708799
_cell_length_c   5.77274150
_cell_angle_alpha   59.85222669
_cell_angle_beta   120.00000438
_cell_angle_gamma   120.14777301
_symmetry_Int_Tables_number   1
_chemical_formula_structural   Li3(CoO2)4
_chemical_formula_sum   'Li3 Co4 O8'
_cell_volume   135.12117733
_cell_formula_units_Z   1
loop_
 _symmetry_equiv_pos_site_id
 _symmetry_equiv_pos_as_xyz
  1  'x, y, z'
loop_
 _atom_site_type_symbol
 _atom_site_label
 _atom_site_symmetry_multiplicity
 _atom_site_fract_x
 _atom_site_fract_y
 _atom_site_fract_z
 _atom_site_occupancy
  Li  Li1  1  0.500000  0.000000  0.500000  1
  Li  Li2  1  0.000000  0.000000  0.500000  1
  Li  Li3  1  0.000000  0.000000  0.000000  1
  Co  Co4  1  0.500000  0.500000  0.500000  1
  Co  Co5  1  0.500000  0.500000  0.000000  1
  Co  Co6  1  0.000000  0.500000  0.000000  1
  Co  Co7  1  0.500000  0.000000  0.000000  1
  O  O8  1  0.737313  0.711938  0.762687  1
  O  O9  1  0.718720  0.751802  0.233459  1
  O  O10  1  0.266541  0.751802  0.781280  1
  O  O11  1  0.733459  0.248198  0.766541  1
  O  O12  1  0.266541  0.751802  0.233459  1
  O  O13  1  0.733459  0.248198  0.218720  1
  O  O14  1  0.281280  0.248198  0.766541  1
  O  O15  1  0.262687  0.288062  0.237313  1
