# generated using pymatgen
data_K3P11
_symmetry_space_group_name_H-M   'P 1'
_cell_length_a   10.86901964
_cell_length_b   10.73836155
_cell_length_c   13.91983455
_cell_angle_alpha   90.00000000
_cell_angle_beta   90.00000000
_cell_angle_gamma   90.00000000
_symmetry_Int_Tables_number   1
_chemical_formula_structural   K3P11
_chemical_formula_sum   'K12 P44'
_cell_volume   1624.65992866
_cell_formula_units_Z   4
loop_
 _symmetry_equiv_pos_site_id
 _symmetry_equiv_pos_as_xyz
  1  'x, y, z'
loop_
 _atom_site_type_symbol
 _atom_site_label
 _atom_site_symmetry_multiplicity
 _atom_site_fract_x
 _atom_site_fract_y
 _atom_site_fract_z
 _atom_site_occupancy
  P  P1  1  0.013634  0.510988  0.653959  1
  P  P2  1  0.513634  0.989012  0.846041  1
  P  P3  1  0.986366  0.010988  0.846041  1
  P  P4  1  0.486366  0.489012  0.653959  1
  P  P5  1  0.986366  0.489012  0.346041  1
  P  P6  1  0.486366  0.010988  0.153959  1
  P  P7  1  0.013634  0.989012  0.153959  1
  P  P8  1  0.513634  0.510988  0.346041  1
  P  P9  1  0.187341  0.418018  0.624159  1
  P  P10  1  0.687341  0.081982  0.875841  1
  P  P11  1  0.812659  0.918018  0.875841  1
  P  P12  1  0.312659  0.581982  0.624159  1
  P  P13  1  0.250000  0.000000  0.475872  1
  P  P14  1  0.750000  0.500000  0.024128  1
  P  P15  1  0.750000  0.000000  0.524128  1
  P  P16  1  0.250000  0.500000  0.975872  1
  P  P17  1  0.744196  0.322799  0.237414  1
  P  P18  1  0.244196  0.177201  0.262586  1
  P  P19  1  0.255804  0.822799  0.262586  1
  P  P20  1  0.755804  0.677201  0.237414  1
  P  P21  1  0.255804  0.677201  0.762586  1
  P  P22  1  0.755804  0.822799  0.737414  1
  P  P23  1  0.744196  0.177201  0.737414  1
  P  P24  1  0.244196  0.322799  0.762586  1
  P  P25  1  0.930226  0.410944  0.209179  1
  P  P26  1  0.430226  0.089056  0.290821  1
  P  P27  1  0.069774  0.910944  0.290821  1
  P  P28  1  0.569774  0.589056  0.209179  1
  P  P29  1  0.069774  0.589056  0.790821  1
  P  P30  1  0.569774  0.910944  0.709179  1
  P  P31  1  0.930226  0.089056  0.709179  1
  P  P32  1  0.430226  0.410944  0.790821  1
  P  P33  1  0.623354  0.419038  0.128183  1
  P  P34  1  0.123354  0.080962  0.371817  1
  P  P35  1  0.376646  0.919038  0.371817  1
  P  P36  1  0.876646  0.580962  0.128183  1
  P  P37  1  0.376646  0.580962  0.871817  1
  P  P38  1  0.876646  0.919038  0.628183  1
  P  P39  1  0.623354  0.080962  0.628183  1
  P  P40  1  0.123354  0.419038  0.871817  1
  P  P41  1  0.687341  0.418018  0.375841  1
  P  P42  1  0.187341  0.081982  0.124159  1
  P  P43  1  0.312659  0.918018  0.124159  1
  P  P44  1  0.812659  0.581982  0.375841  1
  K  K45  1  0.430097  0.234106  0.993088  1
  K  K46  1  0.930097  0.265894  0.506912  1
  K  K47  1  0.569903  0.734106  0.506912  1
  K  K48  1  0.069903  0.765894  0.993088  1
  K  K49  1  0.569903  0.765894  0.006912  1
  K  K50  1  0.069903  0.734106  0.493088  1
  K  K51  1  0.430097  0.265894  0.493088  1
  K  K52  1  0.930097  0.234106  0.006912  1
  K  K53  1  0.250000  0.500000  0.219858  1
  K  K54  1  0.750000  0.000000  0.280142  1
  K  K55  1  0.750000  0.500000  0.780142  1
  K  K56  1  0.250000  0.000000  0.719858  1
