# generated using pymatgen
data_Li2CoO3
_symmetry_space_group_name_H-M   'P 1'
_cell_length_a   9.69694829
_cell_length_b   8.20410637
_cell_length_c   3.29048104
_cell_angle_alpha   90.00000000
_cell_angle_beta   90.00000000
_cell_angle_gamma   90.00000000
_symmetry_Int_Tables_number   1
_chemical_formula_structural   Li2CoO3
_chemical_formula_sum   'Li8 Co4 O12'
_cell_volume   261.77354536
_cell_formula_units_Z   4
loop_
 _symmetry_equiv_pos_site_id
 _symmetry_equiv_pos_as_xyz
  1  'x, y, z'
loop_
 _atom_site_type_symbol
 _atom_site_label
 _atom_site_symmetry_multiplicity
 _atom_site_fract_x
 _atom_site_fract_y
 _atom_site_fract_z
 _atom_site_occupancy
  Li  Li1  1  0.110031  0.407759  0.500000  1
  Li  Li2  1  0.204172  0.144370  0.000000  1
  Li  Li3  1  0.295828  0.644370  0.500000  1
  Li  Li4  1  0.389969  0.907759  0.000000  1
  Li  Li5  1  0.610031  0.092241  0.000000  1
  Li  Li6  1  0.704172  0.355630  0.500000  1
  Li  Li7  1  0.795828  0.855630  0.000000  1
  Li  Li8  1  0.889969  0.592241  0.500000  1
  Co  Co9  1  0.098641  0.867840  0.500000  1
  Co  Co10  1  0.401359  0.367840  0.000000  1
  Co  Co11  1  0.598641  0.632160  0.000000  1
  Co  Co12  1  0.901359  0.132160  0.500000  1
  O  O13  1  0.090528  0.098276  0.500000  1
  O  O14  1  0.085204  0.659169  0.500000  1
  O  O15  1  0.223111  0.382074  0.000000  1
  O  O16  1  0.276889  0.882074  0.500000  1
  O  O17  1  0.414796  0.159169  0.000000  1
  O  O18  1  0.409472  0.598276  0.000000  1
  O  O19  1  0.590528  0.401724  0.000000  1
  O  O20  1  0.585204  0.840831  0.000000  1
  O  O21  1  0.723111  0.117926  0.500000  1
  O  O22  1  0.776889  0.617926  0.000000  1
  O  O23  1  0.914796  0.340831  0.500000  1
  O  O24  1  0.909472  0.901724  0.500000  1
