# generated using pymatgen
data_KGa3
_symmetry_space_group_name_H-M   'P 1'
_cell_length_a   6.35884512
_cell_length_b   6.35884511
_cell_length_c   8.73039585
_cell_angle_alpha   111.35703560
_cell_angle_beta   111.35703560
_cell_angle_gamma   89.99999998
_symmetry_Int_Tables_number   1
_chemical_formula_structural   KGa3
_chemical_formula_sum   'K3 Ga9'
_cell_volume   302.59353391
_cell_formula_units_Z   3
loop_
 _symmetry_equiv_pos_site_id
 _symmetry_equiv_pos_as_xyz
  1  'x, y, z'
loop_
 _atom_site_type_symbol
 _atom_site_label
 _atom_site_symmetry_multiplicity
 _atom_site_fract_x
 _atom_site_fract_y
 _atom_site_fract_z
 _atom_site_occupancy
  K  K1  1  0.126662  0.626662  0.253323  1
  K  K2  1  0.373338  0.873338  0.746677  1
  K  K3  1  0.000000  0.000000  0.000000  1
  Ga  Ga4  1  0.778169  0.984007  0.556337  1
  Ga  Ga5  1  0.015993  0.221831  0.443663  1
  Ga  Ga6  1  0.697774  0.392377  0.784753  1
  Ga  Ga7  1  0.607623  0.302226  0.215247  1
  Ga  Ga8  1  0.607623  0.913021  0.215247  1
  Ga  Ga9  1  0.086979  0.392377  0.784753  1
  Ga  Ga10  1  0.778169  0.572330  0.556337  1
  Ga  Ga11  1  0.427670  0.221831  0.443663  1
  Ga  Ga12  1  0.500000  0.500000  0.000000  1
