# generated using pymatgen
data_LiCoO2
_symmetry_space_group_name_H-M   'P 1'
_cell_length_a   2.93856699
_cell_length_b   2.93865996
_cell_length_c   9.85992540
_cell_angle_alpha   89.99788250
_cell_angle_beta   89.99738736
_cell_angle_gamma   59.99817426
_symmetry_Int_Tables_number   1
_chemical_formula_structural   LiCoO2
_chemical_formula_sum   'Li2 Co2 O4'
_cell_volume   73.73627618
_cell_formula_units_Z   2
loop_
 _symmetry_equiv_pos_site_id
 _symmetry_equiv_pos_as_xyz
  1  'x, y, z'
loop_
 _atom_site_type_symbol
 _atom_site_label
 _atom_site_symmetry_multiplicity
 _atom_site_fract_x
 _atom_site_fract_y
 _atom_site_fract_z
 _atom_site_occupancy
  Li  Li1  1  0.333312  0.333375  0.741792  1
  Li  Li2  1  0.666625  0.666687  0.241800  1
  Co  Co3  1  0.333354  0.333301  0.999487  1
  Co  Co4  1  0.666702  0.666645  0.499489  1
  O  O5  1  0.999972  0.000016  0.113233  1
  O  O6  1  0.000036  0.000007  0.613219  1
  O  O7  1  0.333362  0.333283  0.386557  1
  O  O8  1  0.666738  0.666586  0.886542  1
