# generated using pymatgen
data_LiCo7O8
_symmetry_space_group_name_H-M   'P 1'
_cell_length_a   6.03094179
_cell_length_b   6.03094107
_cell_length_c   6.03094177
_cell_angle_alpha   59.99999788
_cell_angle_beta   59.99999984
_cell_angle_gamma   59.99999597
_symmetry_Int_Tables_number   1
_chemical_formula_structural   LiCo7O8
_chemical_formula_sum   'Li1 Co7 O8'
_cell_volume   155.11019294
_cell_formula_units_Z   1
loop_
 _symmetry_equiv_pos_site_id
 _symmetry_equiv_pos_as_xyz
  1  'x, y, z'
loop_
 _atom_site_type_symbol
 _atom_site_label
 _atom_site_symmetry_multiplicity
 _atom_site_fract_x
 _atom_site_fract_y
 _atom_site_fract_z
 _atom_site_occupancy
  Co  Co1  1  0.000000  0.000000  0.500000  1
  Co  Co2  1  0.000000  0.500000  0.000000  1
  Co  Co3  1  0.000000  0.500000  0.500000  1
  Co  Co4  1  0.500000  0.500000  0.000000  1
  Co  Co5  1  0.500000  0.500000  0.500000  1
  Co  Co6  1  0.500000  0.000000  0.000000  1
  Co  Co7  1  0.500000  0.000000  0.500000  1
  Li  Li8  1  0.000000  0.000000  0.000000  1
  O  O9  1  0.250000  0.250000  0.250000  1
  O  O10  1  0.258060  0.258060  0.741940  1
  O  O11  1  0.258060  0.741940  0.258060  1
  O  O12  1  0.741940  0.258060  0.258060  1
  O  O13  1  0.258060  0.741940  0.741940  1
  O  O14  1  0.741940  0.741940  0.258060  1
  O  O15  1  0.741940  0.258060  0.741940  1
  O  O16  1  0.750000  0.750000  0.750000  1
