# generated using pymatgen
data_KC10
_symmetry_space_group_name_H-M   'P 1'
_cell_length_a   9.99436593
_cell_length_b   9.99436592
_cell_length_c   9.99436592
_cell_angle_alpha   109.47122065
_cell_angle_beta   109.47122064
_cell_angle_gamma   109.47122064
_symmetry_Int_Tables_number   1
_chemical_formula_structural   KC10
_chemical_formula_sum   'K6 C60'
_cell_volume   768.49995707
_cell_formula_units_Z   6
loop_
 _symmetry_equiv_pos_site_id
 _symmetry_equiv_pos_as_xyz
  1  'x, y, z'
loop_
 _atom_site_type_symbol
 _atom_site_label
 _atom_site_symmetry_multiplicity
 _atom_site_fract_x
 _atom_site_fract_y
 _atom_site_fract_z
 _atom_site_occupancy
  C  C1  1  0.303512  0.365544  0.062032  1
  C  C2  1  0.241480  0.937968  0.303512  1
  C  C3  1  0.937968  0.696488  0.634456  1
  C  C4  1  0.758520  0.062032  0.696488  1
  C  C5  1  0.937968  0.303512  0.241480  1
  C  C6  1  0.634456  0.937968  0.696488  1
  C  C7  1  0.062032  0.696488  0.758520  1
  C  C8  1  0.062032  0.303512  0.365544  1
  C  C9  1  0.365544  0.062032  0.303512  1
  C  C10  1  0.303512  0.241480  0.937968  1
  C  C11  1  0.696488  0.634456  0.937968  1
  C  C12  1  0.696488  0.758520  0.062032  1
  C  C13  1  0.365755  0.388811  0.226117  1
  C  C14  1  0.139638  0.773883  0.162694  1
  C  C15  1  0.976944  0.837306  0.611189  1
  C  C16  1  0.860362  0.023056  0.634245  1
  C  C17  1  0.773883  0.162694  0.139638  1
  C  C18  1  0.611189  0.976944  0.837306  1
  C  C19  1  0.023056  0.634245  0.860362  1
  C  C20  1  0.226117  0.365755  0.388811  1
  C  C21  1  0.388811  0.226117  0.365755  1
  C  C22  1  0.162694  0.139638  0.773883  1
  C  C23  1  0.837306  0.611189  0.976944  1
  C  C24  1  0.634245  0.860362  0.023056  1
  C  C25  1  0.634245  0.611189  0.773883  1
  C  C26  1  0.860362  0.226117  0.837306  1
  C  C27  1  0.023056  0.162694  0.388811  1
  C  C28  1  0.139638  0.976944  0.365755  1
  C  C29  1  0.226117  0.837306  0.860362  1
  C  C30  1  0.388811  0.023056  0.162694  1
  C  C31  1  0.976944  0.365755  0.139638  1
  C  C32  1  0.773883  0.634245  0.611189  1
  C  C33  1  0.611189  0.773883  0.634245  1
  C  C34  1  0.837306  0.860362  0.226117  1
  C  C35  1  0.162694  0.388811  0.023056  1
  C  C36  1  0.365755  0.139638  0.976944  1
  C  C37  1  0.426698  0.288168  0.263790  1
  C  C38  1  0.162909  0.736210  0.024378  1
  C  C39  1  0.138531  0.975622  0.711832  1
  C  C40  1  0.837091  0.861469  0.573302  1
  C  C41  1  0.736210  0.024378  0.162909  1
  C  C42  1  0.711832  0.138531  0.975622  1
  C  C43  1  0.861469  0.573302  0.837091  1
  C  C44  1  0.263790  0.426698  0.288168  1
  C  C45  1  0.288168  0.263790  0.426698  1
  C  C46  1  0.024378  0.162909  0.736210  1
  C  C47  1  0.975622  0.711832  0.138531  1
  C  C48  1  0.573302  0.837091  0.861469  1
  C  C49  1  0.573302  0.711832  0.736210  1
  C  C50  1  0.837091  0.263790  0.975622  1
  C  C51  1  0.861469  0.024378  0.288168  1
  C  C52  1  0.162909  0.138531  0.426698  1
  C  C53  1  0.263790  0.975622  0.837091  1
  C  C54  1  0.288168  0.861469  0.024378  1
  C  C55  1  0.138531  0.426698  0.162909  1
  C  C56  1  0.736210  0.573302  0.711832  1
  C  C57  1  0.711832  0.736210  0.573302  1
  C  C58  1  0.975622  0.837091  0.263790  1
  C  C59  1  0.024378  0.288168  0.861469  1
  C  C60  1  0.426698  0.162909  0.138531  1
  K  K61  1  0.779516  0.279516  0.500000  1
  K  K62  1  0.279516  0.500000  0.779516  1
  K  K63  1  0.500000  0.220484  0.720484  1
  K  K64  1  0.720484  0.500000  0.220484  1
  K  K65  1  0.500000  0.779516  0.279516  1
  K  K66  1  0.220484  0.720484  0.500000  1
