# generated using pymatgen
data_Li4CoO4
_symmetry_space_group_name_H-M   'P 1'
_cell_length_a   9.21639249
_cell_length_b   6.71207958
_cell_length_c   6.31184861
_cell_angle_alpha   89.99996964
_cell_angle_beta   90.00008786
_cell_angle_gamma   90.00018276
_symmetry_Int_Tables_number   1
_chemical_formula_structural   Li4CoO4
_chemical_formula_sum   'Li16 Co4 O16'
_cell_volume   390.45827571
_cell_formula_units_Z   4
loop_
 _symmetry_equiv_pos_site_id
 _symmetry_equiv_pos_as_xyz
  1  'x, y, z'
loop_
 _atom_site_type_symbol
 _atom_site_label
 _atom_site_symmetry_multiplicity
 _atom_site_fract_x
 _atom_site_fract_y
 _atom_site_fract_z
 _atom_site_occupancy
  Li  Li1  1  0.087699  0.680966  0.500000  1
  Li  Li2  1  0.130456  0.961972  0.246688  1
  Li  Li3  1  0.130456  0.961971  0.753312  1
  Li  Li4  1  0.180356  0.249320  0.500000  1
  Li  Li5  1  0.319666  0.749322  0.000001  1
  Li  Li6  1  0.369547  0.461957  0.253314  1
  Li  Li7  1  0.369547  0.461958  0.746686  1
  Li  Li8  1  0.412303  0.180976  0.000000  1
  Li  Li9  1  0.587697  0.819024  1.000000  1
  Li  Li10  1  0.630453  0.538040  0.253314  1
  Li  Li11  1  0.630453  0.538041  0.746687  1
  Li  Li12  1  0.680337  0.250679  1.000000  1
  Li  Li13  1  0.819650  0.750681  0.500001  1
  Li  Li14  1  0.869542  0.038028  0.246690  1
  Li  Li15  1  0.869542  0.038028  0.753312  1
  Li  Li16  1  0.912298  0.319034  0.500001  1
  Co  Co17  1  0.125534  0.258346  0.000000  1
  Co  Co18  1  0.374457  0.758351  0.500002  1
  Co  Co19  1  0.625538  0.241656  0.500002  1
  Co  Co20  1  0.874470  0.741659  0.999999  1
  O  O21  1  0.031437  0.229763  0.250270  1
  O  O22  1  0.031434  0.229764  0.749730  1
  O  O23  1  0.261175  0.450422  0.000000  1
  O  O24  1  0.263289  0.525404  0.500001  1
  O  O25  1  0.236724  0.025413  0.000001  1
  O  O26  1  0.238850  0.950410  0.500001  1
  O  O27  1  0.468568  0.729769  0.249732  1
  O  O28  1  0.468569  0.729767  0.750264  1
  O  O29  1  0.531432  0.270233  0.750269  1
  O  O30  1  0.531432  0.270231  0.249731  1
  O  O31  1  0.761157  0.049590  0.500000  1
  O  O32  1  0.763275  0.974583  1.000000  1
  O  O33  1  0.736709  0.474598  0.499999  1
  O  O34  1  0.738827  0.549569  -0.000000  1
  O  O35  1  0.968559  0.770237  0.250269  1
  O  O36  1  0.968560  0.770238  0.749728  1
