# generated using pymatgen
data_Li7Co5O12
_symmetry_space_group_name_H-M   'P 1'
_cell_length_a   4.94553792
_cell_length_b   4.94553763
_cell_length_c   9.37829121
_cell_angle_alpha   85.33730505
_cell_angle_beta   94.66269369
_cell_angle_gamma   61.56425958
_symmetry_Int_Tables_number   1
_chemical_formula_structural   Li7Co5O12
_chemical_formula_sum   'Li7 Co5 O12'
_cell_volume   199.14276132
_cell_formula_units_Z   1
loop_
 _symmetry_equiv_pos_site_id
 _symmetry_equiv_pos_as_xyz
  1  'x, y, z'
loop_
 _atom_site_type_symbol
 _atom_site_label
 _atom_site_symmetry_multiplicity
 _atom_site_fract_x
 _atom_site_fract_y
 _atom_site_fract_z
 _atom_site_occupancy
  Li  Li1  1  0.255089  0.255089  0.750000  1
  Li  Li2  1  0.171552  0.661613  0.505387  1
  Li  Li3  1  0.325626  0.843578  0.994903  1
  Li  Li4  1  0.661613  0.171552  0.994613  1
  Li  Li5  1  0.843578  0.325626  0.505097  1
  Li  Li6  1  0.743380  0.743380  0.250000  1
  Li  Li7  1  0.922213  0.922213  0.750000  1
  Co  Co8  1  0.076678  0.076678  0.250000  1
  Co  Co9  1  0.011974  0.513297  0.987754  1
  Co  Co10  1  0.513297  0.011974  0.512246  1
  Co  Co11  1  0.414858  0.414858  0.250000  1
  Co  Co12  1  0.583143  0.583143  0.750000  1
  O  O13  1  0.938732  0.255227  0.873572  1
  O  O14  1  0.255227  0.938732  0.626428  1
  O  O15  1  0.160142  0.326353  0.374220  1
  O  O16  1  0.326353  0.160142  0.125780  1
  O  O17  1  0.295478  0.546533  0.872734  1
  O  O18  1  0.546533  0.295478  0.627266  1
  O  O19  1  0.421479  0.724594  0.360593  1
  O  O20  1  0.724594  0.421479  0.139407  1
  O  O21  1  0.651760  0.833679  0.880740  1
  O  O22  1  0.833679  0.651760  0.619260  1
  O  O23  1  0.761133  0.061891  0.369413  1
  O  O24  1  0.061891  0.761133  0.130587  1
