# generated using pymatgen
data_K2S5
_symmetry_space_group_name_H-M   'P 1'
_cell_length_a   6.61862054
_cell_length_b   6.60004864
_cell_length_c   18.71872631
_cell_angle_alpha   90.00000000
_cell_angle_beta   90.00000000
_cell_angle_gamma   90.00000000
_symmetry_Int_Tables_number   1
_chemical_formula_structural   K2S5
_chemical_formula_sum   'K8 S20'
_cell_volume   817.69419260
_cell_formula_units_Z   4
loop_
 _symmetry_equiv_pos_site_id
 _symmetry_equiv_pos_as_xyz
  1  'x, y, z'
loop_
 _atom_site_type_symbol
 _atom_site_label
 _atom_site_symmetry_multiplicity
 _atom_site_fract_x
 _atom_site_fract_y
 _atom_site_fract_z
 _atom_site_occupancy
  S  S1  1  0.543341  0.686661  0.150686  1
  S  S2  1  0.043341  0.813339  0.849314  1
  S  S3  1  0.456659  0.186661  0.349314  1
  S  S4  1  0.956659  0.313339  0.650686  1
  S  S5  1  0.245996  0.607234  0.132517  1
  S  S6  1  0.745996  0.892766  0.867483  1
  S  S7  1  0.754004  0.107234  0.367483  1
  S  S8  1  0.254004  0.392766  0.632517  1
  S  S9  1  0.595945  0.915113  0.543337  1
  S  S10  1  0.095945  0.584887  0.456663  1
  S  S11  1  0.404055  0.415113  0.956663  1
  S  S12  1  0.904055  0.084887  0.043337  1
  S  S13  1  0.432364  0.911627  0.636828  1
  S  S14  1  0.932364  0.588373  0.363172  1
  S  S15  1  0.567636  0.411627  0.863172  1
  S  S16  1  0.067636  0.088373  0.136828  1
  S  S17  1  0.444350  0.194271  0.686937  1
  S  S18  1  0.944350  0.305729  0.313063  1
  S  S19  1  0.555650  0.694271  0.813063  1
  S  S20  1  0.055650  0.805729  0.186937  1
  K  K21  1  0.409647  0.691962  0.321702  1
  K  K22  1  0.909647  0.808038  0.678298  1
  K  K23  1  0.590353  0.191962  0.178298  1
  K  K24  1  0.090353  0.308038  0.821702  1
  K  K25  1  0.849267  0.575869  0.009807  1
  K  K26  1  0.349267  0.924131  0.990193  1
  K  K27  1  0.150733  0.075869  0.490193  1
  K  K28  1  0.650733  0.424131  0.509807  1
