# generated using pymatgen
data_KO2
_symmetry_space_group_name_H-M   'P 1'
_cell_length_a   4.18846622
_cell_length_b   5.22542633
_cell_length_c   6.48427184
_cell_angle_alpha   80.49504882
_cell_angle_beta   71.15729352
_cell_angle_gamma   66.37320958
_symmetry_Int_Tables_number   1
_chemical_formula_structural   KO2
_chemical_formula_sum   'K2 O4'
_cell_volume   122.94959012
_cell_formula_units_Z   2
loop_
 _symmetry_equiv_pos_site_id
 _symmetry_equiv_pos_as_xyz
  1  'x, y, z'
loop_
 _atom_site_type_symbol
 _atom_site_label
 _atom_site_symmetry_multiplicity
 _atom_site_fract_x
 _atom_site_fract_y
 _atom_site_fract_z
 _atom_site_occupancy
  O  O1  1  0.078473  0.048971  0.552953  1
  O  O2  1  0.180397  0.451029  0.947047  1
  O  O3  1  0.819603  0.548971  0.052953  1
  O  O4  1  0.921527  0.951029  0.447047  1
  K  K5  1  0.500000  0.500000  0.500000  1
  K  K6  1  0.000000  0.000000  0.000000  1
