# generated using pymatgen
data_Li(CoO2)2
_symmetry_space_group_name_H-M   'P 1'
_cell_length_a   4.86000537
_cell_length_b   5.62396092
_cell_length_c   10.10389631
_cell_angle_alpha   90.00730017
_cell_angle_beta   89.99647235
_cell_angle_gamma   89.99920330
_symmetry_Int_Tables_number   1
_chemical_formula_structural   Li(CoO2)2
_chemical_formula_sum   'Li4 Co8 O16'
_cell_volume   276.16454386
_cell_formula_units_Z   4
loop_
 _symmetry_equiv_pos_site_id
 _symmetry_equiv_pos_as_xyz
  1  'x, y, z'
loop_
 _atom_site_type_symbol
 _atom_site_label
 _atom_site_symmetry_multiplicity
 _atom_site_fract_x
 _atom_site_fract_y
 _atom_site_fract_z
 _atom_site_occupancy
  Li  Li1  1  0.020283  0.749986  0.249937  1
  Li  Li2  1  0.356699  0.749933  0.750072  1
  Li  Li3  1  0.643253  0.250067  0.249926  1
  Li  Li4  1  0.979705  0.250014  0.750063  1
  Co  Co5  1  0.003912  0.249999  0.004996  1
  Co  Co6  1  0.996094  0.750000  0.995008  1
  Co  Co7  1  0.003909  0.249998  0.495012  1
  Co  Co8  1  0.996097  0.750002  0.504986  1
  Co  Co9  1  0.500002  -0.000009  0.000003  1
  Co  Co10  1  0.500002  -0.000000  0.499997  1
  Co  Co11  1  0.500002  0.500009  0.000002  1
  Co  Co12  1  0.500002  0.500000  0.499997  1
  O  O13  1  0.170360  0.001507  0.600216  1
  O  O14  1  0.170387  0.001454  0.899791  1
  O  O15  1  0.170367  0.498529  0.600214  1
  O  O16  1  0.170385  0.498497  0.899789  1
  O  O17  1  0.346079  0.250024  0.099466  1
  O  O18  1  0.346105  0.249979  0.400526  1
  O  O19  1  0.325930  0.750019  0.094922  1
  O  O20  1  0.325958  0.749980  0.405065  1
  O  O21  1  0.674050  0.250020  0.594931  1
  O  O22  1  0.674068  0.249980  0.905078  1
  O  O23  1  0.653896  0.750021  0.599468  1
  O  O24  1  0.653932  0.749976  0.900542  1
  O  O25  1  0.829645  0.998496  0.399781  1
  O  O26  1  0.829638  0.501469  0.399783  1
  O  O27  1  0.829618  0.998533  0.100213  1
  O  O28  1  0.829620  0.501516  0.100215  1
