# generated using pymatgen
data_K4P3
_symmetry_space_group_name_H-M   'P 1'
_cell_length_a   5.02085868
_cell_length_b   6.24523814
_cell_length_c   15.05198976
_cell_angle_alpha   90.00000000
_cell_angle_beta   90.00000000
_cell_angle_gamma   113.70170084
_symmetry_Int_Tables_number   1
_chemical_formula_structural   K4P3
_chemical_formula_sum   'K8 P6'
_cell_volume   432.16613124
_cell_formula_units_Z   2
loop_
 _symmetry_equiv_pos_site_id
 _symmetry_equiv_pos_as_xyz
  1  'x, y, z'
loop_
 _atom_site_type_symbol
 _atom_site_label
 _atom_site_symmetry_multiplicity
 _atom_site_fract_x
 _atom_site_fract_y
 _atom_site_fract_z
 _atom_site_occupancy
  P  P1  1  0.886395  0.772789  0.625058  1
  P  P2  1  0.113605  0.227211  0.374942  1
  P  P3  1  0.113605  0.227211  0.125058  1
  P  P4  1  0.886395  0.772789  0.874942  1
  P  P5  1  0.212197  0.424395  0.250000  1
  P  P6  1  0.787803  0.575605  0.750000  1
  K  K7  1  0.804894  0.609789  0.111384  1
  K  K8  1  0.195106  0.390211  0.888616  1
  K  K9  1  0.804894  0.609789  0.388616  1
  K  K10  1  0.195106  0.390211  0.611384  1
  K  K11  1  0.518043  0.036086  0.250000  1
  K  K12  1  0.481957  0.963914  0.750000  1
  K  K13  1  0.500000  0.000000  0.000000  1
  K  K14  1  0.500000  0.000000  0.500000  1
