# generated using pymatgen
data_Li3CoO3
_symmetry_space_group_name_H-M   'P 1'
_cell_length_a   5.21665384
_cell_length_b   5.58476986
_cell_length_c   5.70442104
_cell_angle_alpha   58.10938518
_cell_angle_beta   89.05877894
_cell_angle_gamma   89.98820497
_symmetry_Int_Tables_number   1
_chemical_formula_structural   Li3CoO3
_chemical_formula_sum   'Li6 Co2 O6'
_cell_volume   141.08021770
_cell_formula_units_Z   2
loop_
 _symmetry_equiv_pos_site_id
 _symmetry_equiv_pos_as_xyz
  1  'x, y, z'
loop_
 _atom_site_type_symbol
 _atom_site_label
 _atom_site_symmetry_multiplicity
 _atom_site_fract_x
 _atom_site_fract_y
 _atom_site_fract_z
 _atom_site_occupancy
  Li  Li1  1  0.085598  0.727958  0.473776  1
  Li  Li2  1  0.127857  0.798071  0.993229  1
  Li  Li3  1  0.445269  0.255819  0.734917  1
  Li  Li4  1  0.554731  0.744181  0.265083  1
  Li  Li5  1  0.872143  0.201929  0.006771  1
  Li  Li6  1  0.914402  0.272042  0.526224  1
  Co  Co7  1  0.349519  0.212629  0.288040  1
  Co  Co8  1  0.650481  0.787371  0.711960  1
  O  O9  1  0.235319  0.097749  0.067392  1
  O  O10  1  0.250387  0.481535  0.359028  1
  O  O11  1  0.289677  0.869978  0.655531  1
  O  O12  1  0.710322  0.130022  0.344469  1
  O  O13  1  0.749613  0.518465  0.640972  1
  O  O14  1  0.764681  0.902251  0.932608  1
