# generated using pymatgen
data_KO2
_symmetry_space_group_name_H-M   'P 1'
_cell_length_a   7.32595762
_cell_length_b   7.35237381
_cell_length_c   11.34631844
_cell_angle_alpha   99.96360632
_cell_angle_beta   71.16559223
_cell_angle_gamma   60.11878047
_symmetry_Int_Tables_number   1
_chemical_formula_structural   KO2
_chemical_formula_sum   'K2 O4'
_cell_volume   458.14869513
_cell_formula_units_Z   2
loop_
 _symmetry_equiv_pos_site_id
 _symmetry_equiv_pos_as_xyz
  1  'x, y, z'
loop_
 _atom_site_type_symbol
 _atom_site_label
 _atom_site_symmetry_multiplicity
 _atom_site_fract_x
 _atom_site_fract_y
 _atom_site_fract_z
 _atom_site_occupancy
  K  K1  1  0.500000  0.500000  0.500000  1
  K  K2  1  0.000000  -0.000000  0.000000  1
  O  O3  1  0.243108  0.654416  0.763579  1
  O  O4  1  0.161103  0.845584  0.736421  1
  O  O5  1  0.756892  0.345584  0.236421  1
  O  O6  1  0.838897  0.154416  0.263579  1
