# generated using pymatgen
data_K3Mn
_symmetry_space_group_name_H-M   'P 1'
_cell_length_a   8.17776314
_cell_length_b   8.17776314
_cell_length_c   8.55960172
_cell_angle_alpha   118.53498300
_cell_angle_beta   118.53498300
_cell_angle_gamma   90.00000000
_symmetry_Int_Tables_number   1
_chemical_formula_structural   K3Mn
_chemical_formula_sum   'K6 Mn2'
_cell_volume   422.05410412
_cell_formula_units_Z   2
loop_
 _symmetry_equiv_pos_site_id
 _symmetry_equiv_pos_as_xyz
  1  'x, y, z'
loop_
 _atom_site_type_symbol
 _atom_site_label
 _atom_site_symmetry_multiplicity
 _atom_site_fract_x
 _atom_site_fract_y
 _atom_site_fract_z
 _atom_site_occupancy
  K  K1  1  0.306664  0.193336  -0.000000  1
  K  K2  1  0.693336  0.806664  0.000000  1
  K  K3  1  0.193336  0.693336  -0.000000  1
  K  K4  1  0.806664  0.306664  0.000000  1
  K  K5  1  0.750000  0.750000  0.500000  1
  K  K6  1  0.250000  0.250000  0.500000  1
  Mn  Mn7  1  0.250000  0.750000  0.500000  1
  Mn  Mn8  1  0.750000  0.250000  0.500000  1
