# generated using pymatgen
data_Li4Co5O12
_symmetry_space_group_name_H-M   'P 1'
_cell_length_a   4.90013139
_cell_length_b   4.88299951
_cell_length_c   9.91153072
_cell_angle_alpha   85.38394539
_cell_angle_beta   99.55260141
_cell_angle_gamma   119.92608166
_symmetry_Int_Tables_number   1
_chemical_formula_structural   Li4Co5O12
_chemical_formula_sum   'Li4 Co5 O12'
_cell_volume   202.68563268
_cell_formula_units_Z   1
loop_
 _symmetry_equiv_pos_site_id
 _symmetry_equiv_pos_as_xyz
  1  'x, y, z'
loop_
 _atom_site_type_symbol
 _atom_site_label
 _atom_site_symmetry_multiplicity
 _atom_site_fract_x
 _atom_site_fract_y
 _atom_site_fract_z
 _atom_site_occupancy
  Li  Li1  1  0.346894  0.183399  0.009637  1
  Li  Li2  1  0.505785  0.505025  0.490000  1
  Li  Li3  1  0.836993  0.183803  0.489023  1
  Li  Li4  1  0.761953  0.506094  0.249010  1
  Co  Co5  1  0.073219  0.151808  0.251374  1
  Co  Co6  1  0.253530  0.508458  0.750767  1
  Co  Co7  1  0.586494  0.172093  0.750156  1
  Co  Co8  1  0.414466  0.825260  0.249119  1
  Co  Co9  1  0.920245  0.838045  0.751156  1
  O  O10  1  0.217127  0.178118  0.649439  1
  O  O11  1  0.427131  0.131153  0.356127  1
  O  O12  1  0.136684  0.484130  0.359218  1
  O  O13  1  0.698673  0.118720  0.146734  1
  O  O14  1  0.961003  0.174085  0.848103  1
  O  O15  1  0.344881  0.490422  0.151067  1
  O  O16  1  0.614177  0.504491  0.848666  1
  O  O17  1  0.079038  0.866587  0.146221  1
  O  O18  1  0.282718  0.841456  0.848311  1
  O  O19  1  0.881093  0.501562  0.647368  1
  O  O20  1  0.558732  0.835840  0.648724  1
  O  O21  1  0.777563  0.856251  0.359778  1
