# generated using pymatgen
data_KAs
_symmetry_space_group_name_H-M   'P 1'
_cell_length_a   4.75258781
_cell_length_b   8.56057296
_cell_length_c   7.89397435
_cell_angle_alpha   90.00000000
_cell_angle_beta   90.00000000
_cell_angle_gamma   90.00000000
_symmetry_Int_Tables_number   1
_chemical_formula_structural   KAs
_chemical_formula_sum   'K4 As4'
_cell_volume   321.16535729
_cell_formula_units_Z   4
loop_
 _symmetry_equiv_pos_site_id
 _symmetry_equiv_pos_as_xyz
  1  'x, y, z'
loop_
 _atom_site_type_symbol
 _atom_site_label
 _atom_site_symmetry_multiplicity
 _atom_site_fract_x
 _atom_site_fract_y
 _atom_site_fract_z
 _atom_site_occupancy
  K  K1  1  0.304870  0.500000  0.750000  1
  K  K2  1  0.695130  0.000000  0.250000  1
  K  K3  1  0.695130  0.500000  0.250000  1
  K  K4  1  0.304870  0.000000  0.750000  1
  As  As5  1  0.192985  0.750000  0.411864  1
  As  As6  1  0.807015  0.750000  0.911864  1
  As  As7  1  0.807015  0.250000  0.588136  1
  As  As8  1  0.192985  0.250000  0.088136  1
