# generated using pymatgen
data_KI
_symmetry_space_group_name_H-M   'P 1'
_cell_length_a   5.06782213
_cell_length_b   8.68636175
_cell_length_c   8.48801485
_cell_angle_alpha   90.00000000
_cell_angle_beta   90.00000000
_cell_angle_gamma   90.00000000
_symmetry_Int_Tables_number   1
_chemical_formula_structural   KI
_chemical_formula_sum   'K4 I4'
_cell_volume   373.65036107
_cell_formula_units_Z   4
loop_
 _symmetry_equiv_pos_site_id
 _symmetry_equiv_pos_as_xyz
  1  'x, y, z'
loop_
 _atom_site_type_symbol
 _atom_site_label
 _atom_site_symmetry_multiplicity
 _atom_site_fract_x
 _atom_site_fract_y
 _atom_site_fract_z
 _atom_site_occupancy
  K  K1  1  0.250000  0.501572  0.749585  1
  K  K2  1  0.250000  0.001572  0.750415  1
  K  K3  1  0.750000  0.498428  0.250415  1
  K  K4  1  0.750000  0.998428  0.249585  1
  I  I5  1  0.250000  0.748932  0.407700  1
  I  I6  1  0.250000  0.248932  0.092300  1
  I  I7  1  0.750000  0.251068  0.592300  1
  I  I8  1  0.750000  0.751068  0.907700  1
