# generated using pymatgen
data_Li5Co7O12
_symmetry_space_group_name_H-M   'P 1'
_cell_length_a   5.03246890
_cell_length_b   5.03246885
_cell_length_c   9.65268631
_cell_angle_alpha   85.24427049
_cell_angle_beta   94.75573247
_cell_angle_gamma   59.74229522
_symmetry_Int_Tables_number   1
_chemical_formula_structural   Li5Co7O12
_chemical_formula_sum   'Li5 Co7 O12'
_cell_volume   208.21172356
_cell_formula_units_Z   1
loop_
 _symmetry_equiv_pos_site_id
 _symmetry_equiv_pos_as_xyz
  1  'x, y, z'
loop_
 _atom_site_type_symbol
 _atom_site_label
 _atom_site_symmetry_multiplicity
 _atom_site_fract_x
 _atom_site_fract_y
 _atom_site_fract_z
 _atom_site_occupancy
  Li  Li1  1  0.165851  0.663707  0.509082  1
  Li  Li2  1  0.331288  0.836415  0.991184  1
  Li  Li3  1  0.663707  0.165851  0.990918  1
  Li  Li4  1  0.836415  0.331288  0.508816  1
  Li  Li5  1  0.917510  0.917510  0.750000  1
  Co  Co6  1  0.080989  0.080989  0.250000  1
  Co  Co7  1  0.995961  0.514180  0.991042  1
  Co  Co8  1  0.250681  0.250681  0.750000  1
  Co  Co9  1  0.514180  0.995961  0.508958  1
  Co  Co10  1  0.419597  0.419597  0.250000  1
  Co  Co11  1  0.582831  0.582831  0.750000  1
  Co  Co12  1  0.748669  0.748669  0.250000  1
  O  O13  1  0.951352  0.241629  0.866073  1
  O  O14  1  0.241629  0.951352  0.633927  1
  O  O15  1  0.115094  0.390358  0.364133  1
  O  O16  1  0.390358  0.115094  0.135867  1
  O  O17  1  0.300073  0.523194  0.866155  1
  O  O18  1  0.523194  0.300073  0.633845  1
  O  O19  1  0.478150  0.705253  0.366448  1
  O  O20  1  0.705253  0.478150  0.133552  1
  O  O21  1  0.601986  0.873344  0.862499  1
  O  O22  1  0.873344  0.601986  0.637501  1
  O  O23  1  0.780053  0.031835  0.368300  1
  O  O24  1  0.031835  0.780053  0.131700  1
