# generated using pymatgen
data_KGa
_symmetry_space_group_name_H-M   'P 1'
_cell_length_a   4.52845529
_cell_length_b   6.84087178
_cell_length_c   9.51443724
_cell_angle_alpha   90.00000000
_cell_angle_beta   90.00000000
_cell_angle_gamma   90.00000000
_symmetry_Int_Tables_number   1
_chemical_formula_structural   KGa
_chemical_formula_sum   'K4 Ga4'
_cell_volume   294.74377423
_cell_formula_units_Z   4
loop_
 _symmetry_equiv_pos_site_id
 _symmetry_equiv_pos_as_xyz
  1  'x, y, z'
loop_
 _atom_site_type_symbol
 _atom_site_label
 _atom_site_symmetry_multiplicity
 _atom_site_fract_x
 _atom_site_fract_y
 _atom_site_fract_z
 _atom_site_occupancy
  K  K1  1  0.250000  0.380584  0.677228  1
  K  K2  1  0.250000  0.119416  0.177228  1
  K  K3  1  0.750000  0.619416  0.322772  1
  K  K4  1  0.750000  0.880584  0.822772  1
  Ga  Ga5  1  0.250000  0.568835  0.022878  1
  Ga  Ga6  1  0.250000  0.931165  0.522878  1
  Ga  Ga7  1  0.750000  0.431165  0.977122  1
  Ga  Ga8  1  0.750000  0.068835  0.477122  1
