# generated using pymatgen
data_Li17(Co4O9)2
_symmetry_space_group_name_H-M   'P 1'
_cell_length_a   9.58329019
_cell_length_b   7.75932879
_cell_length_c   7.61054165
_cell_angle_alpha   61.14648436
_cell_angle_beta   103.21708868
_cell_angle_gamma   87.70282489
_symmetry_Int_Tables_number   1
_chemical_formula_structural   Li17(Co4O9)2
_chemical_formula_sum   'Li17 Co8 O18'
_cell_volume   474.96624065
_cell_formula_units_Z   1
loop_
 _symmetry_equiv_pos_site_id
 _symmetry_equiv_pos_as_xyz
  1  'x, y, z'
loop_
 _atom_site_type_symbol
 _atom_site_label
 _atom_site_symmetry_multiplicity
 _atom_site_fract_x
 _atom_site_fract_y
 _atom_site_fract_z
 _atom_site_occupancy
  Li  Li1  1  0.131866  0.144821  0.810688  1
  Li  Li2  1  0.105678  0.621142  0.472485  1
  Li  Li3  1  0.124595  0.920961  0.635977  1
  Li  Li4  1  0.149450  0.349857  0.404455  1
  Li  Li5  1  0.336240  0.856991  0.951875  1
  Li  Li6  1  0.402231  0.624092  0.835760  1
  Li  Li7  1  0.376627  0.074124  0.496495  1
  Li  Li8  1  0.359686  0.462923  0.236547  1
  Li  Li9  1  0.629413  0.550661  0.758047  1
  Li  Li10  1  0.621020  0.927905  0.498468  1
  Li  Li11  1  0.597989  0.373123  0.157914  1
  Li  Li12  1  0.658055  0.132117  0.051684  1
  Li  Li13  1  0.858190  0.292310  0.875660  1
  Li  Li14  1  0.849307  0.665820  0.586849  1
  Li  Li15  1  0.880447  0.087899  0.354077  1
  Li  Li16  1  0.894402  0.382273  0.516990  1
  Li  Li17  1  0.871544  0.847070  0.192144  1
  Co  Co18  1  0.117556  0.479421  0.936689  1
  Co  Co19  1  0.146172  0.041564  0.232479  1
  Co  Co20  1  0.391004  0.296070  0.717131  1
  Co  Co21  1  0.365293  0.766500  0.370822  1
  Co  Co22  1  0.632891  0.231717  0.628150  1
  Co  Co23  1  0.610651  0.693464  0.290869  1
  Co  Co24  1  0.857921  0.957611  0.762275  1
  Co  Co25  1  0.878835  0.530907  0.069122  1
  O  O26  1  0.022524  0.412438  0.752264  1
  O  O27  1  0.031033  0.895031  0.383092  1
  O  O28  1  0.219917  0.673276  0.888983  1
  O  O29  1  0.289631  0.112543  0.687235  1
  O  O30  1  0.205298  0.270590  0.225698  1
  O  O31  1  0.290463  0.523323  0.442446  1
  O  O32  1  0.252463  0.953361  0.103124  1
  O  O33  1  0.493825  0.356596  0.898638  1
  O  O34  1  0.460204  0.795523  0.580531  1
  O  O35  1  0.540389  0.203681  0.418728  1
  O  O36  1  0.507759  0.637586  0.105948  1
  O  O37  1  0.763513  0.061057  0.896427  1
  O  O38  1  0.712626  0.469321  0.576977  1
  O  O39  1  0.791925  0.731684  0.776060  1
  O  O40  1  0.710088  0.881929  0.313558  1
  O  O41  1  0.787352  0.324967  0.085127  1
  O  O42  1  0.969476  0.108308  0.609597  1
  O  O43  1  0.961227  0.566475  0.280495  1
