# generated using pymatgen
data_K3Co
_symmetry_space_group_name_H-M   'P 1'
_cell_length_a   6.93983121
_cell_length_b   8.20788425
_cell_length_c   9.80912120
_cell_angle_alpha   90.00000000
_cell_angle_beta   90.00000000
_cell_angle_gamma   106.28476698
_symmetry_Int_Tables_number   1
_chemical_formula_structural   K3Co
_chemical_formula_sum   'K6 Co2'
_cell_volume   536.32386141
_cell_formula_units_Z   2
loop_
 _symmetry_equiv_pos_site_id
 _symmetry_equiv_pos_as_xyz
  1  'x, y, z'
loop_
 _atom_site_type_symbol
 _atom_site_label
 _atom_site_symmetry_multiplicity
 _atom_site_fract_x
 _atom_site_fract_y
 _atom_site_fract_z
 _atom_site_occupancy
  K  K1  1  0.000000  0.000000  0.500000  1
  K  K2  1  0.000000  0.500000  0.000000  1
  K  K3  1  0.498471  0.374538  0.747525  1
  K  K4  1  0.501529  0.125462  0.247525  1
  K  K5  1  0.501529  0.625462  0.252475  1
  K  K6  1  0.498471  0.874538  0.752475  1
  Co  Co7  1  0.000000  0.500000  0.500000  1
  Co  Co8  1  0.000000  0.000000  0.000000  1
