# generated using pymatgen
data_Li9(CoO4)2
_symmetry_space_group_name_H-M   'P 1'
_cell_length_a   9.30084720
_cell_length_b   9.27685084
_cell_length_c   9.11957232
_cell_angle_alpha   90.00000000
_cell_angle_beta   90.00000000
_cell_angle_gamma   90.00000000
_symmetry_Int_Tables_number   1
_chemical_formula_structural   Li9(CoO4)2
_chemical_formula_sum   'Li36 Co8 O32'
_cell_volume   786.86015677
_cell_formula_units_Z   4
loop_
 _symmetry_equiv_pos_site_id
 _symmetry_equiv_pos_as_xyz
  1  'x, y, z'
loop_
 _atom_site_type_symbol
 _atom_site_label
 _atom_site_symmetry_multiplicity
 _atom_site_fract_x
 _atom_site_fract_y
 _atom_site_fract_z
 _atom_site_occupancy
  Li  Li1  1  0.103425  0.631436  0.137731  1
  Li  Li2  1  0.103425  0.868564  0.637731  1
  Li  Li3  1  0.116322  0.108949  0.834601  1
  Li  Li4  1  0.116322  0.391051  0.334601  1
  Li  Li5  1  0.116671  0.849351  0.359553  1
  Li  Li6  1  0.116671  0.650649  0.859553  1
  Li  Li7  1  0.161091  0.121443  0.415480  1
  Li  Li8  1  0.161091  0.378557  0.915480  1
  Li  Li9  1  0.338909  0.878557  0.915480  1
  Li  Li10  1  0.338909  0.621443  0.415480  1
  Li  Li11  1  0.383329  0.150649  0.859553  1
  Li  Li12  1  0.383329  0.349351  0.359553  1
  Li  Li13  1  0.383678  0.608949  0.834601  1
  Li  Li14  1  0.383678  0.891051  0.334601  1
  Li  Li15  1  0.396575  0.131436  0.137731  1
  Li  Li16  1  0.396575  0.368564  0.637731  1
  Li  Li17  1  0.615515  0.615331  0.357750  1
  Li  Li18  1  0.615515  0.884669  0.857750  1
  Li  Li19  1  0.610393  0.115184  0.654387  1
  Li  Li20  1  0.610393  0.384816  0.154387  1
  Li  Li21  1  0.621956  0.648756  0.628225  1
  Li  Li22  1  0.621956  0.851244  0.128225  1
  Li  Li23  1  0.651248  0.619967  0.895697  1
  Li  Li24  1  0.651248  0.880033  0.395697  1
  Li  Li25  1  0.662959  0.114125  0.104365  1
  Li  Li26  1  0.662959  0.385875  0.604365  1
  Li  Li27  1  0.837041  0.614125  0.104365  1
  Li  Li28  1  0.837041  0.885875  0.604365  1
  Li  Li29  1  0.848752  0.380033  0.395697  1
  Li  Li30  1  0.848752  0.119967  0.895697  1
  Li  Li31  1  0.878044  0.148756  0.628225  1
  Li  Li32  1  0.878044  0.351244  0.128225  1
  Li  Li33  1  0.889607  0.615184  0.654387  1
  Li  Li34  1  0.889607  0.884816  0.154387  1
  Li  Li35  1  0.884485  0.115331  0.357750  1
  Li  Li36  1  0.884485  0.384669  0.857750  1
  Co  Co37  1  0.122693  0.131054  0.121943  1
  Co  Co38  1  0.122693  0.368946  0.621943  1
  Co  Co39  1  0.377307  0.631054  0.121943  1
  Co  Co40  1  0.377307  0.868946  0.621943  1
  Co  Co41  1  0.612102  0.149434  0.379555  1
  Co  Co42  1  0.612102  0.350566  0.879555  1
  Co  Co43  1  0.887898  0.649434  0.379555  1
  Co  Co44  1  0.887898  0.850566  0.879555  1
  O  O45  1  0.008855  0.261103  0.497220  1
  O  O46  1  0.008855  0.238897  0.997220  1
  O  O47  1  0.030443  0.014157  0.248710  1
  O  O48  1  0.030443  0.485843  0.748710  1
  O  O49  1  0.247924  0.048493  0.998742  1
  O  O50  1  0.247924  0.451507  0.498742  1
  O  O51  1  0.236437  0.235840  0.245090  1
  O  O52  1  0.236437  0.264160  0.745090  1
  O  O53  1  0.263563  0.735840  0.245090  1
  O  O54  1  0.263563  0.764160  0.745090  1
  O  O55  1  0.252076  0.548493  0.998742  1
  O  O56  1  0.252076  0.951507  0.498742  1
  O  O57  1  0.469557  0.514157  0.248710  1
  O  O58  1  0.469557  0.985843  0.748710  1
  O  O59  1  0.491145  0.761103  0.497220  1
  O  O60  1  0.491145  0.738897  0.997220  1
  O  O61  1  0.519364  0.237350  0.005962  1
  O  O62  1  0.519364  0.262650  0.505962  1
  O  O63  1  0.534731  0.009876  0.252861  1
  O  O64  1  0.534731  0.490124  0.752861  1
  O  O65  1  0.743342  0.037830  0.499552  1
  O  O66  1  0.743342  0.462170  0.999552  1
  O  O67  1  0.748412  0.248571  0.257966  1
  O  O68  1  0.748412  0.251429  0.757966  1
  O  O69  1  0.751588  0.748571  0.257966  1
  O  O70  1  0.751588  0.751429  0.757966  1
  O  O71  1  0.756658  0.537830  0.499552  1
  O  O72  1  0.756658  0.962170  0.999552  1
  O  O73  1  0.965269  0.990124  0.752861  1
  O  O74  1  0.965269  0.509876  0.252861  1
  O  O75  1  0.980636  0.737350  0.005962  1
  O  O76  1  0.980636  0.762650  0.505962  1
