# generated using pymatgen
data_KSi
_symmetry_space_group_name_H-M   'P 1'
_cell_length_a   12.69958236
_cell_length_b   12.69958236
_cell_length_c   12.69958236
_cell_angle_alpha   90.00000000
_cell_angle_beta   90.00000000
_cell_angle_gamma   90.00000000
_symmetry_Int_Tables_number   1
_chemical_formula_structural   KSi
_chemical_formula_sum   'K32 Si32'
_cell_volume   2048.18092318
_cell_formula_units_Z   32
loop_
 _symmetry_equiv_pos_site_id
 _symmetry_equiv_pos_as_xyz
  1  'x, y, z'
loop_
 _atom_site_type_symbol
 _atom_site_label
 _atom_site_symmetry_multiplicity
 _atom_site_fract_x
 _atom_site_fract_y
 _atom_site_fract_z
 _atom_site_occupancy
  Si  Si1  1  0.562280  0.926503  0.816959  1
  Si  Si2  1  0.562280  0.073497  0.183041  1
  Si  Si3  1  0.926503  0.816959  0.562280  1
  Si  Si4  1  0.073497  0.816959  0.437720  1
  Si  Si5  1  0.816959  0.562280  0.926503  1
  Si  Si6  1  0.183041  0.437720  0.926503  1
  Si  Si7  1  0.937720  0.683041  0.426503  1
  Si  Si8  1  0.937720  0.316959  0.573497  1
  Si  Si9  1  0.062280  0.683041  0.573497  1
  Si  Si10  1  0.316959  0.573497  0.937720  1
  Si  Si11  1  0.573497  0.062280  0.683041  1
  Si  Si12  1  0.573497  0.937720  0.316959  1
  Si  Si13  1  0.683041  0.426503  0.937720  1
  Si  Si14  1  0.426503  0.937720  0.683041  1
  Si  Si15  1  0.683041  0.573497  0.062280  1
  Si  Si16  1  0.067755  0.067755  0.067755  1
  Si  Si17  1  0.426503  0.062280  0.316959  1
  Si  Si18  1  0.183041  0.562280  0.073497  1
  Si  Si19  1  0.816959  0.437720  0.073497  1
  Si  Si20  1  0.926503  0.183041  0.437720  1
  Si  Si21  1  0.073497  0.183041  0.562280  1
  Si  Si22  1  0.437720  0.073497  0.816959  1
  Si  Si23  1  0.437720  0.926503  0.183041  1
  Si  Si24  1  0.062280  0.316959  0.426503  1
  Si  Si25  1  0.567755  0.567755  0.567755  1
  Si  Si26  1  0.932245  0.067755  0.932245  1
  Si  Si27  1  0.067755  0.932245  0.932245  1
  Si  Si28  1  0.932245  0.932245  0.067755  1
  Si  Si29  1  0.567755  0.432245  0.432245  1
  Si  Si30  1  0.432245  0.432245  0.567755  1
  Si  Si31  1  0.432245  0.567755  0.432245  1
  Si  Si32  1  0.316959  0.426503  0.062280  1
  K  K33  1  0.066380  0.337255  0.140065  1
  K  K34  1  0.837255  0.433620  0.359935  1
  K  K35  1  0.566380  0.640065  0.837255  1
  K  K36  1  0.433620  0.640065  0.162745  1
  K  K37  1  0.640065  0.837255  0.566380  1
  K  K38  1  0.359935  0.162745  0.566380  1
  K  K39  1  0.662745  0.859935  0.066380  1
  K  K40  1  0.662745  0.140065  0.933620  1
  K  K41  1  0.337255  0.859935  0.933620  1
  K  K42  1  0.140065  0.933620  0.662745  1
  K  K43  1  0.933620  0.337255  0.859935  1
  K  K44  1  0.933620  0.662745  0.140065  1
  K  K45  1  0.859935  0.066380  0.662745  1
  K  K46  1  0.066380  0.662745  0.859935  1
  K  K47  1  0.859935  0.933620  0.337255  1
  K  K48  1  0.140065  0.066380  0.337255  1
  K  K49  1  0.837255  0.566380  0.640065  1
  K  K50  1  0.359935  0.837255  0.433620  1
  K  K51  1  0.640065  0.162745  0.433620  1
  K  K52  1  0.566380  0.359935  0.162745  1
  K  K53  1  0.433620  0.359935  0.837255  1
  K  K54  1  0.162745  0.433620  0.640065  1
  K  K55  1  0.162745  0.566380  0.359935  1
  K  K56  1  0.337255  0.140065  0.066380  1
  K  K57  1  0.833730  0.833730  0.833730  1
  K  K58  1  0.666270  0.333730  0.666270  1
  K  K59  1  0.333730  0.666270  0.666270  1
  K  K60  1  0.666270  0.666270  0.333730  1
  K  K61  1  0.833730  0.166270  0.166270  1
  K  K62  1  0.166270  0.166270  0.833730  1
  K  K63  1  0.166270  0.833730  0.166270  1
  K  K64  1  0.333730  0.333730  0.333730  1
