# generated using pymatgen
data_KCo
_symmetry_space_group_name_H-M   'P 1'
_cell_length_a   3.69978157
_cell_length_b   10.94919331
_cell_length_c   5.71923787
_cell_angle_alpha   90.00000000
_cell_angle_beta   90.00000000
_cell_angle_gamma   90.00000000
_symmetry_Int_Tables_number   1
_chemical_formula_structural   KCo
_chemical_formula_sum   'K4 Co4'
_cell_volume   231.68417348
_cell_formula_units_Z   4
loop_
 _symmetry_equiv_pos_site_id
 _symmetry_equiv_pos_as_xyz
  1  'x, y, z'
loop_
 _atom_site_type_symbol
 _atom_site_label
 _atom_site_symmetry_multiplicity
 _atom_site_fract_x
 _atom_site_fract_y
 _atom_site_fract_z
 _atom_site_occupancy
  K  K1  1  0.250000  0.402194  0.506171  1
  K  K2  1  0.750000  0.097806  0.493829  1
  K  K3  1  0.750000  0.902194  0.993829  1
  K  K4  1  0.250000  0.597806  0.006171  1
  Co  Co5  1  0.250000  0.804735  0.498869  1
  Co  Co6  1  0.750000  0.695265  0.501131  1
  Co  Co7  1  0.750000  0.304735  0.001131  1
  Co  Co8  1  0.250000  0.195265  -0.001131  1
