# generated using pymatgen
data_KSe3
_symmetry_space_group_name_H-M   'P 1'
_cell_length_a   5.47153248
_cell_length_b   8.70313814
_cell_length_c   6.46610223
_cell_angle_alpha   64.89158408
_cell_angle_beta   64.96994823
_cell_angle_gamma   71.67887403
_symmetry_Int_Tables_number   1
_chemical_formula_structural   KSe3
_chemical_formula_sum   'K2 Se6'
_cell_volume   249.19847882
_cell_formula_units_Z   2
loop_
 _symmetry_equiv_pos_site_id
 _symmetry_equiv_pos_as_xyz
  1  'x, y, z'
loop_
 _atom_site_type_symbol
 _atom_site_label
 _atom_site_symmetry_multiplicity
 _atom_site_fract_x
 _atom_site_fract_y
 _atom_site_fract_z
 _atom_site_occupancy
  K  K1  1  0.032905  0.247918  0.546934  1
  K  K2  1  0.827757  0.752082  0.453066  1
  Se  Se3  1  0.298309  0.521385  0.751026  1
  Se  Se4  1  0.570720  0.478615  0.248974  1
  Se  Se5  1  0.137521  0.808848  0.867354  1
  Se  Se6  1  0.813722  0.191152  0.132646  1
  Se  Se7  1  0.290746  0.203521  0.996052  1
  Se  Se8  1  0.490320  0.796479  0.003948  1
