# generated using pymatgen
data_K2Re
_symmetry_space_group_name_H-M   'P 1'
_cell_length_a   4.88149458
_cell_length_b   9.43009729
_cell_length_c   9.46904800
_cell_angle_alpha   119.86402200
_cell_angle_beta   90.00000000
_cell_angle_gamma   90.00000000
_symmetry_Int_Tables_number   1
_chemical_formula_structural   K2Re
_chemical_formula_sum   'K6 Re3'
_cell_volume   378.00659540
_cell_formula_units_Z   3
loop_
 _symmetry_equiv_pos_site_id
 _symmetry_equiv_pos_as_xyz
  1  'x, y, z'
loop_
 _atom_site_type_symbol
 _atom_site_label
 _atom_site_symmetry_multiplicity
 _atom_site_fract_x
 _atom_site_fract_y
 _atom_site_fract_z
 _atom_site_occupancy
  K  K1  1  0.000000  0.587694  1.000000  1
  K  K2  1  -0.000000  0.414786  0.413726  1
  K  K3  1  -0.000000  0.001061  0.586274  1
  K  K4  1  0.500000  0.255773  0.000000  1
  K  K5  1  0.500000  0.743726  0.743051  1
  K  K6  1  0.500000  0.000674  0.256949  1
  Re  Re7  1  0.000000  0.998353  0.000000  1
  Re  Re8  1  0.500000  0.332958  0.668082  1
  Re  Re9  1  0.500000  0.664875  0.331918  1
