# generated using pymatgen
data_K2Tc
_symmetry_space_group_name_H-M   'P 1'
_cell_length_a   4.94483648
_cell_length_b   9.65342640
_cell_length_c   9.73755416
_cell_angle_alpha   119.71461639
_cell_angle_beta   90.00000000
_cell_angle_gamma   90.00000000
_symmetry_Int_Tables_number   1
_chemical_formula_structural   K2Tc
_chemical_formula_sum   'K6 Tc3'
_cell_volume   403.69714674
_cell_formula_units_Z   3
loop_
 _symmetry_equiv_pos_site_id
 _symmetry_equiv_pos_as_xyz
  1  'x, y, z'
loop_
 _atom_site_type_symbol
 _atom_site_label
 _atom_site_symmetry_multiplicity
 _atom_site_fract_x
 _atom_site_fract_y
 _atom_site_fract_z
 _atom_site_occupancy
  K  K1  1  0.000000  0.588551  1.000000  1
  K  K2  1  0.000000  0.415473  0.414619  1
  K  K3  1  0.000000  0.000855  0.585381  1
  K  K4  1  0.500000  0.256376  1.000000  1
  K  K5  1  0.500000  0.745667  0.744970  1
  K  K6  1  0.500000  0.000698  0.255030  1
  Tc  Tc7  1  -0.000000  0.997778  1.000000  1
  Tc  Tc8  1  0.500000  0.331702  0.668901  1
  Tc  Tc9  1  0.500000  0.662800  0.331099  1
