# generated using pymatgen
data_KF5
_symmetry_space_group_name_H-M   'P 1'
_cell_length_a   5.47371290
_cell_length_b   5.47371290
_cell_length_c   7.89693479
_cell_angle_alpha   110.27779061
_cell_angle_beta   110.27779061
_cell_angle_gamma   90.00000000
_symmetry_Int_Tables_number   1
_chemical_formula_structural   KF5
_chemical_formula_sum   'K2 F10'
_cell_volume   206.23636743
_cell_formula_units_Z   2
loop_
 _symmetry_equiv_pos_site_id
 _symmetry_equiv_pos_as_xyz
  1  'x, y, z'
loop_
 _atom_site_type_symbol
 _atom_site_label
 _atom_site_symmetry_multiplicity
 _atom_site_fract_x
 _atom_site_fract_y
 _atom_site_fract_z
 _atom_site_occupancy
  K  K1  1  0.625000  0.875000  0.250000  1
  K  K2  1  0.375000  0.125000  0.750000  1
  F  F3  1  0.125000  0.375000  0.250000  1
  F  F4  1  0.875000  0.625000  0.750000  1
  F  F5  1  0.942241  0.763348  0.561422  1
  F  F6  1  0.619181  0.298073  0.561422  1
  F  F7  1  0.263348  0.119181  0.061422  1
  F  F8  1  0.798073  0.442241  0.061422  1
  F  F9  1  0.057759  0.236652  0.438578  1
  F  F10  1  0.380819  0.701927  0.438578  1
  F  F11  1  0.736652  0.880819  0.938578  1
  F  F12  1  0.201927  0.557759  0.938578  1
