# generated using pymatgen
data_KFe
_symmetry_space_group_name_H-M   'P 1'
_cell_length_a   4.41527532
_cell_length_b   5.98539028
_cell_length_c   5.98539028
_cell_angle_alpha   114.49584849
_cell_angle_beta   99.18676690
_cell_angle_gamma   99.18676690
_symmetry_Int_Tables_number   1
_chemical_formula_structural   KFe
_chemical_formula_sum   'K2 Fe2'
_cell_volume   137.52913387
_cell_formula_units_Z   2
loop_
 _symmetry_equiv_pos_site_id
 _symmetry_equiv_pos_as_xyz
  1  'x, y, z'
loop_
 _atom_site_type_symbol
 _atom_site_label
 _atom_site_symmetry_multiplicity
 _atom_site_fract_x
 _atom_site_fract_y
 _atom_site_fract_z
 _atom_site_occupancy
  K  K1  1  0.250000  0.163571  0.836429  1
  K  K2  1  0.750000  0.836429  0.163571  1
  Fe  Fe3  1  0.250000  0.523121  0.476879  1
  Fe  Fe4  1  0.750000  0.476879  0.523121  1
