# generated using pymatgen
data_K2O2
_symmetry_space_group_name_H-M   'P 1'
_cell_length_a   3.78331798
_cell_length_b   4.02898915
_cell_length_c   5.29598444
_cell_angle_alpha   90.00000000
_cell_angle_beta   111.24208747
_cell_angle_gamma   90.00000000
_symmetry_Int_Tables_number   1
_chemical_formula_structural   K2O2
_chemical_formula_sum   'K2 O2'
_cell_volume   75.24168978
_cell_formula_units_Z   1
loop_
 _symmetry_equiv_pos_site_id
 _symmetry_equiv_pos_as_xyz
  1  'x, y, z'
loop_
 _atom_site_type_symbol
 _atom_site_label
 _atom_site_symmetry_multiplicity
 _atom_site_fract_x
 _atom_site_fract_y
 _atom_site_fract_z
 _atom_site_occupancy
  K  K1  1  0.129945  0.250000  0.251745  1
  K  K2  1  0.870055  0.750000  0.748255  1
  O  O3  1  0.411277  0.250000  0.831076  1
  O  O4  1  0.588723  0.750000  0.168924  1
