# generated using pymatgen
data_K5La2
_symmetry_space_group_name_H-M   'P 1'
_cell_length_a   7.17510311
_cell_length_b   12.71486812
_cell_length_c   18.85711868
_cell_angle_alpha   147.18820161
_cell_angle_beta   100.96732739
_cell_angle_gamma   90.00000017
_symmetry_Int_Tables_number   1
_chemical_formula_structural   K5La2
_chemical_formula_sum   'K10 La4'
_cell_volume   872.87858288
_cell_formula_units_Z   2
loop_
 _symmetry_equiv_pos_site_id
 _symmetry_equiv_pos_as_xyz
  1  'x, y, z'
loop_
 _atom_site_type_symbol
 _atom_site_label
 _atom_site_symmetry_multiplicity
 _atom_site_fract_x
 _atom_site_fract_y
 _atom_site_fract_z
 _atom_site_occupancy
  K  K1  1  0.548815  0.238417  0.558927  1
  K  K2  1  -0.010111  0.261583  0.441073  1
  K  K3  1  0.451185  0.761583  0.441073  1
  K  K4  1  0.010111  0.738417  0.558927  1
  K  K5  1  0.840511  0.750000  1.000000  1
  K  K6  1  0.159489  0.250000  0.000000  1
  K  K7  1  0.252099  0.753401  0.870520  1
  K  K8  1  0.381580  0.746599  0.129480  1
  K  K9  1  0.747901  0.246599  0.129480  1
  K  K10  1  0.618420  0.253401  0.870520  1
  La  La11  1  0.436608  0.317656  0.348579  1
  La  La12  1  0.088028  0.182344  0.651421  1
  La  La13  1  0.563392  0.682344  0.651421  1
  La  La14  1  0.911972  0.817656  0.348579  1
