# generated using pymatgen
data_Li3Co13O16
_symmetry_space_group_name_H-M   'P 1'
_cell_length_a   11.58274376
_cell_length_b   5.16629281
_cell_length_c   5.16086881
_cell_angle_alpha   99.28560749
_cell_angle_beta   98.47912746
_cell_angle_gamma   85.86105176
_symmetry_Int_Tables_number   1
_chemical_formula_structural   Li3Co13O16
_chemical_formula_sum   'Li3 Co13 O16'
_cell_volume   301.07693645
_cell_formula_units_Z   1
loop_
 _symmetry_equiv_pos_site_id
 _symmetry_equiv_pos_as_xyz
  1  'x, y, z'
loop_
 _atom_site_type_symbol
 _atom_site_label
 _atom_site_symmetry_multiplicity
 _atom_site_fract_x
 _atom_site_fract_y
 _atom_site_fract_z
 _atom_site_occupancy
  Li  Li1  1  0.187500  0.750000  0.687500  1
  Li  Li2  1  0.875254  0.500366  0.876458  1
  Li  Li3  1  0.499746  0.999634  0.498542  1
  Co  Co4  1  0.436417  0.754422  0.934132  1
  Co  Co5  1  0.124876  0.504037  0.121497  1
  Co  Co6  1  0.687500  0.750000  0.187500  1
  Co  Co7  1  0.311435  0.246236  0.806460  1
  Co  Co8  1  0.375233  0.502262  0.378420  1
  Co  Co9  1  0.624092  0.498773  0.622010  1
  Co  Co10  1  0.938583  0.745578  0.440868  1
  Co  Co11  1  0.063565  0.253764  0.568540  1
  Co  Co12  1  0.561207  0.245926  0.061574  1
  Co  Co13  1  0.250124  0.995963  0.253503  1
  Co  Co14  1  0.813793  0.254074  0.313426  1
  Co  Co15  1  0.750908  0.001227  0.752990  1
  Co  Co16  1  0.999767  0.997738  0.996580  1
  O  O17  1  0.092133  0.881360  0.339222  1
  O  O18  1  0.594965  0.871533  0.847278  1
  O  O19  1  0.343163  0.874791  0.593536  1
  O  O20  1  0.031837  0.625209  0.781464  1
  O  O21  1  0.467229  0.383661  0.721627  1
  O  O22  1  0.218147  0.369171  0.461518  1
  O  O23  1  0.714852  0.372810  0.967818  1
  O  O24  1  0.844669  0.884042  0.100785  1
  O  O25  1  0.156853  0.130829  0.913482  1
  O  O26  1  0.780035  0.628467  0.527722  1
  O  O27  1  0.282867  0.618640  0.035777  1
  O  O28  1  0.530331  0.615958  0.274215  1
  O  O29  1  0.971594  0.371299  0.223292  1
  O  O30  1  0.660148  0.127190  0.407182  1
  O  O31  1  0.403406  0.128701  0.151708  1
  O  O32  1  0.907771  0.116339  0.653373  1
