# generated using pymatgen
data_K2Se3
_symmetry_space_group_name_H-M   'P 1'
_cell_length_a   6.60586010
_cell_length_b   6.60586010
_cell_length_c   7.75218447
_cell_angle_alpha   90.00000000
_cell_angle_beta   90.00000000
_cell_angle_gamma   108.86639292
_symmetry_Int_Tables_number   1
_chemical_formula_structural   K2Se3
_chemical_formula_sum   'K4 Se6'
_cell_volume   320.11077800
_cell_formula_units_Z   2
loop_
 _symmetry_equiv_pos_site_id
 _symmetry_equiv_pos_as_xyz
  1  'x, y, z'
loop_
 _atom_site_type_symbol
 _atom_site_label
 _atom_site_symmetry_multiplicity
 _atom_site_fract_x
 _atom_site_fract_y
 _atom_site_fract_z
 _atom_site_occupancy
  K  K1  1  0.098474  0.901526  0.871068  1
  K  K2  1  0.901526  0.098474  0.371068  1
  K  K3  1  0.588138  0.411862  0.149752  1
  K  K4  1  0.411862  0.588138  0.649752  1
  Se  Se5  1  0.792762  0.207238  0.817841  1
  Se  Se6  1  0.207238  0.792762  0.317841  1
  Se  Se7  1  0.088466  0.407710  0.999569  1
  Se  Se8  1  0.911534  0.592290  0.499569  1
  Se  Se9  1  0.592290  0.911534  0.999569  1
  Se  Se10  1  0.407710  0.088466  0.499569  1
