# generated using pymatgen
data_K17In41
_symmetry_space_group_name_H-M   'P 1'
_cell_length_a   17.34702846
_cell_length_b   17.34702863
_cell_length_c   17.34702801
_cell_angle_alpha   59.99999921
_cell_angle_beta   59.99999886
_cell_angle_gamma   60.00000071
_symmetry_Int_Tables_number   1
_chemical_formula_structural   K17In41
_chemical_formula_sum   'K34 In82'
_cell_volume   3691.13784584
_cell_formula_units_Z   2
loop_
 _symmetry_equiv_pos_site_id
 _symmetry_equiv_pos_as_xyz
  1  'x, y, z'
loop_
 _atom_site_type_symbol
 _atom_site_label
 _atom_site_symmetry_multiplicity
 _atom_site_fract_x
 _atom_site_fract_y
 _atom_site_fract_z
 _atom_site_occupancy
  K  K1  1  0.777137  0.777137  0.777137  1
  K  K2  1  0.620523  0.005605  0.253349  1
  K  K3  1  0.253349  0.005605  0.620523  1
  K  K4  1  0.005605  0.620523  0.253349  1
  K  K5  1  0.379477  0.994395  0.746651  1
  K  K6  1  0.620523  0.620523  0.253349  1
  K  K7  1  0.168590  0.777137  0.777137  1
  K  K8  1  0.005605  0.253349  0.620523  1
  K  K9  1  0.125000  0.125000  0.125000  1
  K  K10  1  0.777137  0.168590  0.777137  1
  K  K11  1  0.222863  0.222863  0.831410  1
  K  K12  1  0.746651  0.994395  0.379477  1
  K  K13  1  0.994395  0.379477  0.379477  1
  K  K14  1  0.253349  0.620523  0.620523  1
  K  K15  1  0.831410  0.222863  0.222863  1
  K  K16  1  0.746651  0.379477  0.379477  1
  K  K17  1  0.222863  0.222863  0.222863  1
  K  K18  1  0.379477  0.379477  0.746651  1
  K  K19  1  0.620523  0.620523  0.005605  1
  K  K20  1  0.222863  0.831410  0.222863  1
  K  K21  1  0.994395  0.379477  0.746651  1
  K  K22  1  0.379477  0.994395  0.379477  1
  K  K23  1  0.253349  0.620523  0.005605  1
  K  K24  1  0.379477  0.746651  0.379477  1
  K  K25  1  0.620523  0.005605  0.620523  1
  K  K26  1  0.379477  0.746651  0.994395  1
  K  K27  1  0.379477  0.379477  0.994395  1
  K  K28  1  0.620523  0.253349  0.620523  1
  K  K29  1  0.620523  0.253349  0.005605  1
  K  K30  1  0.746651  0.379477  0.994395  1
  K  K31  1  0.005605  0.620523  0.620523  1
  K  K32  1  0.875000  0.875000  0.875000  1
  K  K33  1  0.994395  0.746651  0.379477  1
  K  K34  1  0.777137  0.777137  0.168590  1
  In  In35  1  0.343085  0.172279  0.992318  1
  In  In36  1  0.599468  0.239134  0.422264  1
  In  In37  1  0.809069  0.114549  0.461832  1
  In  In38  1  0.538168  0.885451  0.885451  1
  In  In39  1  0.577736  0.760866  0.400532  1
  In  In40  1  0.114549  0.114549  0.461832  1
  In  In41  1  0.656915  0.007682  0.827721  1
  In  In42  1  0.007682  0.007682  0.827721  1
  In  In43  1  0.114549  0.809069  0.461832  1
  In  In44  1  0.760866  0.400532  0.760866  1
  In  In45  1  0.422264  0.239134  0.239134  1
  In  In46  1  0.422264  0.239134  0.599468  1
  In  In47  1  0.827721  0.656915  0.007682  1
  In  In48  1  0.172279  0.992318  0.992318  1
  In  In49  1  0.239134  0.239134  0.422264  1
  In  In50  1  0.599468  0.239134  0.239134  1
  In  In51  1  0.992318  0.172279  0.992318  1
  In  In52  1  0.114549  0.114549  0.809069  1
  In  In53  1  0.992318  0.343085  0.172279  1
  In  In54  1  0.544299  0.867103  0.544299  1
  In  In55  1  0.992318  0.172279  0.343085  1
  In  In56  1  0.885451  0.538168  0.190931  1
  In  In57  1  0.538168  0.885451  0.190931  1
  In  In58  1  0.461832  0.809069  0.114549  1
  In  In59  1  0.007682  0.656915  0.007682  1
  In  In60  1  0.239134  0.422264  0.599468  1
  In  In61  1  0.343085  0.992318  0.172279  1
  In  In62  1  0.400532  0.760866  0.577736  1
  In  In63  1  0.760866  0.577736  0.760866  1
  In  In64  1  0.172279  0.992318  0.343085  1
  In  In65  1  0.239134  0.599468  0.422264  1
  In  In66  1  0.760866  0.400532  0.577736  1
  In  In67  1  0.375000  0.375000  0.375000  1
  In  In68  1  0.577736  0.400532  0.760866  1
  In  In69  1  0.577736  0.760866  0.760866  1
  In  In70  1  0.885451  0.190931  0.885451  1
  In  In71  1  0.007682  0.007682  0.656915  1
  In  In72  1  0.461832  0.114549  0.809069  1
  In  In73  1  0.809069  0.114549  0.114549  1
  In  In74  1  0.538168  0.190931  0.885451  1
  In  In75  1  0.190931  0.885451  0.538168  1
  In  In76  1  0.400532  0.577736  0.760866  1
  In  In77  1  0.007682  0.827721  0.656915  1
  In  In78  1  0.599468  0.422264  0.239134  1
  In  In79  1  0.992318  0.343085  0.992318  1
  In  In80  1  0.656915  0.827721  0.007682  1
  In  In81  1  0.190931  0.538168  0.885451  1
  In  In82  1  0.239134  0.239134  0.599468  1
  In  In83  1  0.885451  0.885451  0.538168  1
  In  In84  1  0.132897  0.455701  0.455701  1
  In  In85  1  0.114549  0.809069  0.114549  1
  In  In86  1  0.809069  0.461832  0.114549  1
  In  In87  1  0.190931  0.885451  0.885451  1
  In  In88  1  0.544299  0.544299  0.867103  1
  In  In89  1  0.760866  0.577736  0.400532  1
  In  In90  1  0.343085  0.992318  0.992318  1
  In  In91  1  0.114549  0.461832  0.809069  1
  In  In92  1  0.625000  0.625000  0.625000  1
  In  In93  1  0.760866  0.760866  0.577736  1
  In  In94  1  0.867103  0.544299  0.544299  1
  In  In95  1  0.461832  0.114549  0.114549  1
  In  In96  1  0.007682  0.656915  0.827721  1
  In  In97  1  0.885451  0.190931  0.538168  1
  In  In98  1  0.885451  0.885451  0.190931  1
  In  In99  1  0.760866  0.760866  0.400532  1
  In  In100  1  0.455701  0.455701  0.132897  1
  In  In101  1  0.455701  0.455701  0.455701  1
  In  In102  1  0.544299  0.544299  0.544299  1
  In  In103  1  0.827721  0.007682  0.007682  1
  In  In104  1  0.455701  0.132897  0.455701  1
  In  In105  1  0.114549  0.461832  0.114549  1
  In  In106  1  0.992318  0.992318  0.343085  1
  In  In107  1  0.422264  0.599468  0.239134  1
  In  In108  1  0.239134  0.599468  0.239134  1
  In  In109  1  0.885451  0.538168  0.885451  1
  In  In110  1  0.827721  0.007682  0.656915  1
  In  In111  1  0.239134  0.422264  0.239134  1
  In  In112  1  0.007682  0.827721  0.007682  1
  In  In113  1  0.992318  0.992318  0.172279  1
  In  In114  1  0.400532  0.760866  0.760866  1
  In  In115  1  0.172279  0.343085  0.992318  1
  In  In116  1  0.656915  0.007682  0.007682  1
