# generated using pymatgen
data_Li9Co13O28
_symmetry_space_group_name_H-M   'P 1'
_cell_length_a   8.10505924
_cell_length_b   8.52559470
_cell_length_c   7.43895337
_cell_angle_alpha   104.42706949
_cell_angle_beta   105.23708480
_cell_angle_gamma   101.55307699
_symmetry_Int_Tables_number   1
_chemical_formula_structural   Li9Co13O28
_chemical_formula_sum   'Li9 Co13 O28'
_cell_volume   460.48940955
_cell_formula_units_Z   1
loop_
 _symmetry_equiv_pos_site_id
 _symmetry_equiv_pos_as_xyz
  1  'x, y, z'
loop_
 _atom_site_type_symbol
 _atom_site_label
 _atom_site_symmetry_multiplicity
 _atom_site_fract_x
 _atom_site_fract_y
 _atom_site_fract_z
 _atom_site_occupancy
  Li  Li1  1  0.270261  0.220346  0.902773  1
  Li  Li2  1  0.138796  0.346952  0.224278  1
  Li  Li3  1  0.356379  0.139882  0.306342  1
  Li  Li4  1  0.644671  0.868306  0.710649  1
  Li  Li5  1  0.498797  0.002880  0.004161  1
  Li  Li6  1  0.872203  0.635653  0.778854  1
  Li  Li7  1  0.784178  0.711948  0.420454  1
  Li  Li8  1  0.720560  0.795496  0.070771  1
  Li  Li9  1  0.938662  0.561133  0.143697  1
  Co  Co10  1  0.139646  0.858589  0.718080  1
  Co  Co11  1  0.075367  0.936966  0.356082  1
  Co  Co12  1  0.211259  0.788579  0.070556  1
  Co  Co13  1  0.347522  0.636827  0.782081  1
  Co  Co14  1  0.291522  0.721158  0.432492  1
  Co  Co15  1  0.430032  0.573785  0.144948  1
  Co  Co16  1  0.499068  0.500365  0.500521  1
  Co  Co17  1  0.567978  0.426752  0.856177  1
  Co  Co18  1  0.714070  0.283193  0.571157  1
  Co  Co19  1  0.648081  0.360573  0.217792  1
  Co  Co20  1  0.787583  0.207717  0.927859  1
  Co  Co21  1  0.926212  0.068365  0.645037  1
  Co  Co22  1  0.858422  0.140551  0.283092  1
  O  O23  1  0.003834  0.200551  0.901117  1
  O  O24  1  0.123400  0.663393  0.799432  1
  O  O25  1  0.063784  0.740783  0.441608  1
  O  O26  1  0.243672  0.973596  0.982953  1
  O  O27  1  0.085937  0.126050  0.292623  1
  O  O28  1  0.153278  0.052366  0.634675  1
  O  O29  1  0.367837  0.835067  0.706409  1
  O  O30  1  0.300216  0.913260  0.344376  1
  O  O31  1  0.272924  0.525619  0.504124  1
  O  O32  1  0.349625  0.446904  0.873817  1
  O  O33  1  0.205235  0.595461  0.163644  1
  O  O34  1  0.437027  0.764970  0.053165  1
  O  O35  1  0.516927  0.698341  0.422917  1
  O  O36  1  0.585458  0.625183  0.778022  1
  O  O37  1  0.413953  0.374233  0.225498  1
  O  O38  1  0.490059  0.307570  0.585569  1
  O  O39  1  0.560138  0.238149  0.945837  1
  O  O40  1  0.795517  0.407650  0.845969  1
  O  O41  1  0.662210  0.557949  0.129963  1
  O  O42  1  0.729358  0.481138  0.494322  1
  O  O43  1  0.699284  0.088878  0.655097  1
  O  O44  1  0.628659  0.167062  0.298367  1
  O  O45  1  0.844862  0.943634  0.365642  1
  O  O46  1  0.909243  0.863023  0.697595  1
  O  O47  1  0.749312  0.024412  0.008236  1
  O  O48  1  0.930348  0.254895  0.555119  1
  O  O49  1  0.877056  0.337675  0.199304  1
  O  O50  1  0.992602  0.787637  0.094939  1
