# generated using pymatgen
data_Li5(CoO2)4
_symmetry_space_group_name_H-M   'P 1'
_cell_length_a   8.21225129
_cell_length_b   8.20267244
_cell_length_c   8.35746555
_cell_angle_alpha   89.84774796
_cell_angle_beta   89.84030430
_cell_angle_gamma   89.92564341
_symmetry_Int_Tables_number   1
_chemical_formula_structural   Li5(CoO2)4
_chemical_formula_sum   'Li20 Co16 O32'
_cell_volume   562.97435512
_cell_formula_units_Z   4
loop_
 _symmetry_equiv_pos_site_id
 _symmetry_equiv_pos_as_xyz
  1  'x, y, z'
loop_
 _atom_site_type_symbol
 _atom_site_label
 _atom_site_symmetry_multiplicity
 _atom_site_fract_x
 _atom_site_fract_y
 _atom_site_fract_z
 _atom_site_occupancy
  Li  Li1  1  0.895113  0.910123  0.089307  1
  Li  Li2  1  0.895525  0.615984  0.402495  1
  Li  Li3  1  0.897737  0.111467  0.877962  1
  Li  Li4  1  0.760593  0.762660  0.240678  1
  Li  Li5  1  0.746239  0.271871  0.754225  1
  Li  Li6  1  0.613106  0.606276  0.120298  1
  Li  Li7  1  0.616361  0.871308  0.412855  1
  Li  Li8  1  0.622204  0.113130  0.606083  1
  Li  Li9  1  0.596339  0.405923  0.913176  1
  Li  Li10  1  0.414399  0.087110  0.414379  1
  Li  Li11  1  0.405189  0.889964  0.619248  1
  Li  Li12  1  0.398915  0.631162  0.913710  1
  Li  Li13  1  0.372423  0.398263  0.106954  1
  Li  Li14  1  0.267110  0.226733  0.261462  1
  Li  Li15  1  0.244891  0.746766  0.743524  1
  Li  Li16  1  0.103527  0.125002  0.093408  1
  Li  Li17  1  0.108436  0.394198  0.364023  1
  Li  Li18  1  0.116949  0.599655  0.596296  1
  Li  Li19  1  0.118947  0.903422  0.893437  1
  Li  Li20  1  0.906538  0.388838  0.589905  1
  Co  Co21  1  0.878853  0.628458  0.875526  1
  Co  Co22  1  0.878685  0.880508  0.629036  1
  Co  Co23  1  0.627949  0.622510  0.628295  1
  Co  Co24  1  0.378117  0.880031  0.128260  1
  Co  Co25  1  0.376529  0.375081  0.621969  1
  Co  Co26  1  0.130167  0.882302  0.374143  1
  Co  Co27  1  0.124542  0.638520  0.127520  1
  Co  Co28  1  0.626306  0.375295  0.370900  1
  Co  Co29  1  0.380648  0.130184  0.870377  1
  Co  Co30  1  0.876663  0.378255  0.123441  1
  Co  Co31  1  0.874690  0.129746  0.375916  1
  Co  Co32  1  0.631103  0.881225  0.874120  1
  Co  Co33  1  0.629966  0.130679  0.121509  1
  Co  Co34  1  0.379849  0.623650  0.376798  1
  Co  Co35  1  0.128803  0.378999  0.873770  1
  Co  Co36  1  0.126114  0.131563  0.627091  1
  O  O37  1  0.888525  0.387641  0.887934  1
  O  O38  1  0.872102  0.614770  0.108803  1
  O  O39  1  0.883884  0.126636  0.617919  1
  O  O40  1  0.871796  0.891113  0.394919  1
  O  O41  1  0.881220  0.639536  0.639238  1
  O  O42  1  0.864521  0.368922  0.358773  1
  O  O43  1  0.869770  0.868965  0.862073  1
  O  O44  1  0.866665  0.141240  0.137831  1
  O  O45  1  0.642260  0.879919  0.642389  1
  O  O46  1  0.638522  0.367193  0.136822  1
  O  O47  1  0.637550  0.136550  0.357998  1
  O  O48  1  0.639430  0.641825  0.877030  1
  O  O49  1  0.634424  0.895656  0.105654  1
  O  O50  1  0.614714  0.367827  0.604090  1
  O  O51  1  0.623502  0.614726  0.373807  1
  O  O52  1  0.621753  0.125194  0.883909  1
  O  O53  1  0.394248  0.134224  0.103209  1
  O  O54  1  0.391373  0.889370  0.865954  1
  O  O55  1  0.388623  0.380779  0.386023  1
  O  O56  1  0.375324  0.611312  0.611897  1
  O  O57  1  0.381603  0.861008  0.385572  1
  O  O58  1  0.382179  0.630460  0.143608  1
  O  O59  1  0.367013  0.370232  0.859186  1
  O  O60  1  0.365658  0.137540  0.636380  1
  O  O61  1  0.140914  0.623717  0.371108  1
  O  O62  1  0.125524  0.890623  0.124210  1
  O  O63  1  0.140518  0.141498  0.860699  1
  O  O64  1  0.138887  0.367538  0.639558  1
  O  O65  1  0.117318  0.615552  0.877143  1
  O  O66  1  0.114079  0.895864  0.629757  1
  O  O67  1  0.118053  0.370691  0.112125  1
  O  O68  1  0.110971  0.138288  0.395983  1
