# generated using pymatgen
data_Li9(CoO4)2
_symmetry_space_group_name_H-M   'P 1'
_cell_length_a   7.87154674
_cell_length_b   7.24019879
_cell_length_c   6.75527857
_cell_angle_alpha   90.00000000
_cell_angle_beta   90.00000000
_cell_angle_gamma   88.68110728
_symmetry_Int_Tables_number   1
_chemical_formula_structural   Li9(CoO4)2
_chemical_formula_sum   'Li18 Co4 O16'
_cell_volume   384.89189044
_cell_formula_units_Z   2
loop_
 _symmetry_equiv_pos_site_id
 _symmetry_equiv_pos_as_xyz
  1  'x, y, z'
loop_
 _atom_site_type_symbol
 _atom_site_label
 _atom_site_symmetry_multiplicity
 _atom_site_fract_x
 _atom_site_fract_y
 _atom_site_fract_z
 _atom_site_occupancy
  Li  Li1  1  0.000000  0.500000  0.265834  1
  Li  Li2  1  0.000000  0.500000  0.734166  1
  Li  Li3  1  0.074130  0.765218  0.500000  1
  Li  Li4  1  0.164560  0.967915  0.238740  1
  Li  Li5  1  0.164560  0.967915  0.761260  1
  Li  Li6  1  0.270816  0.246828  0.500000  1
  Li  Li7  1  0.338955  0.500638  0.239105  1
  Li  Li8  1  0.338955  0.500638  0.760895  1
  Li  Li9  1  0.454862  0.243730  0.000000  1
  Li  Li10  1  0.500000  0.000000  0.734606  1
  Li  Li11  1  0.500000  0.000000  0.265394  1
  Li  Li12  1  0.545138  0.756270  0.000000  1
  Li  Li13  1  0.661045  0.499362  0.239105  1
  Li  Li14  1  0.661045  0.499362  0.760895  1
  Li  Li15  1  0.729184  0.753172  0.500000  1
  Li  Li16  1  0.835440  0.032085  0.761260  1
  Li  Li17  1  0.835440  0.032085  0.238740  1
  Li  Li18  1  0.925870  0.234782  0.500000  1
  Co  Co19  1  0.125708  0.235223  0.000000  1
  Co  Co20  1  0.386489  0.730137  0.500000  1
  Co  Co21  1  0.613511  0.269863  0.500000  1
  Co  Co22  1  0.874292  0.764777  0.000000  1
  O  O23  1  0.022218  0.210476  0.237642  1
  O  O24  1  0.022218  0.210476  0.762358  1
  O  O25  1  0.216642  0.458965  0.000000  1
  O  O26  1  0.215799  0.537351  0.500000  1
  O  O27  1  0.288591  0.048146  0.000000  1
  O  O28  1  0.275127  0.964769  0.500000  1
  O  O29  1  0.502054  0.712581  0.268421  1
  O  O30  1  0.502054  0.712581  0.731579  1
  O  O31  1  0.497946  0.287419  0.268421  1
  O  O32  1  0.497946  0.287419  0.731579  1
  O  O33  1  0.724873  0.035231  0.500000  1
  O  O34  1  0.711409  0.951854  0.000000  1
  O  O35  1  0.784201  0.462649  0.500000  1
  O  O36  1  0.783358  0.541035  0.000000  1
  O  O37  1  0.977782  0.789524  0.237642  1
  O  O38  1  0.977782  0.789524  0.762358  1
