# generated using pymatgen
data_Li2Mg
_symmetry_space_group_name_H-M   'P 1'
_cell_length_a   3.10020190
_cell_length_b   5.87889494
_cell_length_c   7.29031320
_cell_angle_alpha   74.41373892
_cell_angle_beta   90.00000000
_cell_angle_gamma   105.28806747
_symmetry_Int_Tables_number   1
_chemical_formula_structural   Li2Mg
_chemical_formula_sum   'Li4 Mg2'
_cell_volume   123.09692151
_cell_formula_units_Z   2
loop_
 _symmetry_equiv_pos_site_id
 _symmetry_equiv_pos_as_xyz
  1  'x, y, z'
loop_
 _atom_site_type_symbol
 _atom_site_label
 _atom_site_symmetry_multiplicity
 _atom_site_fract_x
 _atom_site_fract_y
 _atom_site_fract_z
 _atom_site_occupancy
  Li  Li1  1  0.001057  0.002112  0.998525  1
  Li  Li2  1  0.722096  0.444190  0.056094  1
  Li  Li3  1  0.334325  0.668650  0.331744  1
  Li  Li4  1  0.666693  0.333385  0.665623  1
  Mg  Mg5  1  0.057511  0.115022  0.385417  1
  Mg  Mg6  1  0.384987  0.769975  0.729265  1
