# generated using pymatgen
data_Li17(CoO4)4
_symmetry_space_group_name_H-M   'P 1'
_cell_length_a   7.89324012
_cell_length_b   7.44153156
_cell_length_c   6.66081315
_cell_angle_alpha   90.00000000
_cell_angle_beta   90.00000000
_cell_angle_gamma   88.76757659
_symmetry_Int_Tables_number   1
_chemical_formula_structural   Li17(CoO4)4
_chemical_formula_sum   'Li17 Co4 O16'
_cell_volume   391.15097549
_cell_formula_units_Z   1
loop_
 _symmetry_equiv_pos_site_id
 _symmetry_equiv_pos_as_xyz
  1  'x, y, z'
loop_
 _atom_site_type_symbol
 _atom_site_label
 _atom_site_symmetry_multiplicity
 _atom_site_fract_x
 _atom_site_fract_y
 _atom_site_fract_z
 _atom_site_occupancy
  Li  Li1  1  0.984904  0.502019  0.247716  1
  Li  Li2  1  0.984904  0.502019  0.752284  1
  Li  Li3  1  0.066744  0.765780  0.500000  1
  Li  Li4  1  0.160410  0.983708  0.244683  1
  Li  Li5  1  0.160410  0.983708  0.755317  1
  Li  Li6  1  0.338249  0.467133  0.256035  1
  Li  Li7  1  0.338249  0.467133  0.743965  1
  Li  Li8  1  0.453577  0.241942  0.000000  1
  Li  Li9  1  0.509176  0.006699  0.725472  1
  Li  Li10  1  0.509176  0.006699  0.274528  1
  Li  Li11  1  0.537179  0.753474  0.000000  1
  Li  Li12  1  0.669368  0.495278  0.234561  1
  Li  Li13  1  0.669368  0.495278  0.765439  1
  Li  Li14  1  0.722264  0.752661  0.500000  1
  Li  Li15  1  0.825876  0.037099  0.759211  1
  Li  Li16  1  0.825876  0.037099  0.240789  1
  Li  Li17  1  0.949064  0.252440  0.500000  1
  Co  Co18  1  0.122375  0.236666  0.000000  1
  Co  Co19  1  0.383250  0.726887  0.500000  1
  Co  Co20  1  0.621044  0.270818  0.500000  1
  Co  Co21  1  0.873394  0.773804  0.000000  1
  O  O22  1  0.008603  0.211631  0.230937  1
  O  O23  1  0.008603  0.211631  0.769063  1
  O  O24  1  0.221736  0.449724  0.000000  1
  O  O25  1  0.220221  0.557252  0.500000  1
  O  O26  1  0.283939  0.053152  0.000000  1
  O  O27  1  0.278716  0.943223  0.500000  1
  O  O28  1  0.511741  0.704481  0.278708  1
  O  O29  1  0.511741  0.704481  0.721292  1
  O  O30  1  0.522577  0.289479  0.256646  1
  O  O31  1  0.522577  0.289479  0.743354  1
  O  O32  1  0.704644  0.026474  0.500000  1
  O  O33  1  0.701658  0.944988  0.000000  1
  O  O34  1  0.795591  0.465136  0.500000  1
  O  O35  1  0.800630  0.547629  0.000000  1
  O  O36  1  0.976387  0.801142  0.238632  1
  O  O37  1  0.976387  0.801142  0.761368  1
