# generated using pymatgen
data_Li5AuO4
_symmetry_space_group_name_H-M   'P 1'
_cell_length_a   7.70116811
_cell_length_b   5.55844509
_cell_length_c   5.38247158
_cell_angle_alpha   79.95946452
_cell_angle_beta   47.57015392
_cell_angle_gamma   44.88668058
_symmetry_Int_Tables_number   1
_chemical_formula_structural   Li5AuO4
_chemical_formula_sum   'Li5 Au1 O4'
_cell_volume   97.50882053
_cell_formula_units_Z   1
loop_
 _symmetry_equiv_pos_site_id
 _symmetry_equiv_pos_as_xyz
  1  'x, y, z'
loop_
 _atom_site_type_symbol
 _atom_site_label
 _atom_site_symmetry_multiplicity
 _atom_site_fract_x
 _atom_site_fract_y
 _atom_site_fract_z
 _atom_site_occupancy
  Li  Li1  1  0.000000  0.000000  0.000000  1
  Li  Li2  1  0.185486  0.210957  0.777480  1
  Li  Li3  1  0.318073  0.649331  0.343901  1
  Li  Li4  1  0.681927  0.350669  0.656099  1
  Li  Li5  1  0.814514  0.789043  0.222520  1
  Au  Au6  1  0.500000  0.000000  0.000000  1
  O  O7  1  0.235014  0.942502  0.077286  1
  O  O8  1  0.415413  0.297551  0.726044  1
  O  O9  1  0.584587  0.702449  0.273956  1
  O  O10  1  0.764986  0.057498  0.922714  1
