# generated using pymatgen
data_Li5CoO4
_symmetry_space_group_name_H-M   'P 1'
_cell_length_a   9.20471432
_cell_length_b   9.19176294
_cell_length_c   9.20438893
_cell_angle_alpha   90.00000000
_cell_angle_beta   90.00000000
_cell_angle_gamma   90.00000000
_symmetry_Int_Tables_number   1
_chemical_formula_structural   Li5CoO4
_chemical_formula_sum   'Li40 Co8 O32'
_cell_volume   778.76081465
_cell_formula_units_Z   8
loop_
 _symmetry_equiv_pos_site_id
 _symmetry_equiv_pos_as_xyz
  1  'x, y, z'
loop_
 _atom_site_type_symbol
 _atom_site_label
 _atom_site_symmetry_multiplicity
 _atom_site_fract_x
 _atom_site_fract_y
 _atom_site_fract_z
 _atom_site_occupancy
  Li  Li1  1  0.110127  0.611497  0.142888  1
  Li  Li2  1  0.110127  0.888503  0.642888  1
  Li  Li3  1  0.118487  0.109315  0.839647  1
  Li  Li4  1  0.118487  0.390685  0.339647  1
  Li  Li5  1  0.119523  0.851690  0.374568  1
  Li  Li6  1  0.119523  0.648310  0.874568  1
  Li  Li7  1  0.148356  0.876295  0.105534  1
  Li  Li8  1  0.148356  0.623705  0.605534  1
  Li  Li9  1  0.157483  0.118159  0.394406  1
  Li  Li10  1  0.157483  0.381841  0.894406  1
  Li  Li11  1  0.342517  0.881842  0.894406  1
  Li  Li12  1  0.342517  0.618158  0.394406  1
  Li  Li13  1  0.351644  0.376295  0.105534  1
  Li  Li14  1  0.351644  0.123705  0.605534  1
  Li  Li15  1  0.380477  0.148310  0.874568  1
  Li  Li16  1  0.380477  0.351690  0.374568  1
  Li  Li17  1  0.381513  0.890685  0.339647  1
  Li  Li18  1  0.381513  0.609315  0.839647  1
  Li  Li19  1  0.389873  0.111497  0.142888  1
  Li  Li20  1  0.389873  0.388503  0.642888  1
  Li  Li21  1  0.610127  0.611497  0.357112  1
  Li  Li22  1  0.610127  0.888503  0.857112  1
  Li  Li23  1  0.618487  0.109315  0.660353  1
  Li  Li24  1  0.618487  0.390685  0.160353  1
  Li  Li25  1  0.619523  0.648310  0.625432  1
  Li  Li26  1  0.619523  0.851690  0.125432  1
  Li  Li27  1  0.648356  0.623705  0.894466  1
  Li  Li28  1  0.648356  0.876295  0.394466  1
  Li  Li29  1  0.657483  0.118159  0.105594  1
  Li  Li30  1  0.657483  0.381841  0.605594  1
  Li  Li31  1  0.842517  0.618158  0.105594  1
  Li  Li32  1  0.842517  0.881842  0.605594  1
  Li  Li33  1  0.851644  0.376295  0.394466  1
  Li  Li34  1  0.851644  0.123705  0.894466  1
  Li  Li35  1  0.880477  0.148310  0.625432  1
  Li  Li36  1  0.880477  0.351690  0.125432  1
  Li  Li37  1  0.881513  0.609315  0.660353  1
  Li  Li38  1  0.881513  0.890685  0.160353  1
  Li  Li39  1  0.889873  0.111497  0.357112  1
  Li  Li40  1  0.889873  0.388503  0.857112  1
  Co  Co41  1  0.113600  0.147752  0.118213  1
  Co  Co42  1  0.113600  0.352248  0.618213  1
  Co  Co43  1  0.386400  0.647752  0.118213  1
  Co  Co44  1  0.386400  0.852248  0.618213  1
  Co  Co45  1  0.613600  0.147752  0.381787  1
  Co  Co46  1  0.613600  0.352248  0.881787  1
  Co  Co47  1  0.886400  0.647752  0.381787  1
  Co  Co48  1  0.886400  0.852248  0.881787  1
  O  O49  1  0.006636  0.251480  0.483790  1
  O  O50  1  0.006636  0.248520  0.983790  1
  O  O51  1  0.035916  0.006881  0.245962  1
  O  O52  1  0.035916  0.493119  0.745962  1
  O  O53  1  0.244546  0.033773  -0.000041  1
  O  O54  1  0.244546  0.466227  0.499959  1
  O  O55  1  0.245851  0.246776  0.240599  1
  O  O56  1  0.245851  0.253224  0.740599  1
  O  O57  1  0.254149  0.746776  0.240599  1
  O  O58  1  0.254149  0.753224  0.740599  1
  O  O59  1  0.255454  0.533773  -0.000041  1
  O  O60  1  0.255454  0.966227  0.499959  1
  O  O61  1  0.464084  0.506881  0.245962  1
  O  O62  1  0.464084  0.993119  0.745962  1
  O  O63  1  0.493364  0.751480  0.483790  1
  O  O64  1  0.493364  0.748520  0.983790  1
  O  O65  1  0.506636  0.251480  0.016210  1
  O  O66  1  0.506636  0.248520  0.516210  1
  O  O67  1  0.535916  0.006881  0.254038  1
  O  O68  1  0.535916  0.493119  0.754038  1
  O  O69  1  0.744546  0.033773  0.500041  1
  O  O70  1  0.744546  0.466227  0.000041  1
  O  O71  1  0.745851  0.246776  0.259401  1
  O  O72  1  0.745851  0.253224  0.759401  1
  O  O73  1  0.754149  0.746776  0.259401  1
  O  O74  1  0.754149  0.753224  0.759401  1
  O  O75  1  0.755454  0.533773  0.500041  1
  O  O76  1  0.755454  0.966227  0.000041  1
  O  O77  1  0.964084  0.506881  0.254038  1
  O  O78  1  0.964084  0.993119  0.754038  1
  O  O79  1  0.993364  0.751480  0.016210  1
  O  O80  1  0.993364  0.748520  0.516210  1
