# generated using pymatgen
data_Li4CoO4
_symmetry_space_group_name_H-M   'P 1'
_cell_length_a   6.24268548
_cell_length_b   6.24275551
_cell_length_c   4.76992008
_cell_angle_alpha   89.99993559
_cell_angle_beta   90.00009005
_cell_angle_gamma   89.99924905
_symmetry_Int_Tables_number   1
_chemical_formula_structural   Li4CoO4
_chemical_formula_sum   'Li8 Co2 O8'
_cell_volume   185.89122266
_cell_formula_units_Z   2
loop_
 _symmetry_equiv_pos_site_id
 _symmetry_equiv_pos_as_xyz
  1  'x, y, z'
loop_
 _atom_site_type_symbol
 _atom_site_label
 _atom_site_symmetry_multiplicity
 _atom_site_fract_x
 _atom_site_fract_y
 _atom_site_fract_z
 _atom_site_occupancy
  Li  Li1  1  0.049294  0.950732  0.750012  1
  Li  Li2  1  0.250004  0.250008  0.186151  1
  Li  Li3  1  0.250006  0.250017  0.686124  1
  Li  Li4  1  0.450729  0.549294  0.750003  1
  Li  Li5  1  0.549297  0.049295  0.249992  1
  Li  Li6  1  0.750009  0.750009  0.313859  1
  Li  Li7  1  0.750022  0.750001  0.813884  1
  Li  Li8  1  0.950731  0.450733  0.249995  1
  Co  Co9  1  0.249989  0.749999  0.250008  1
  Co  Co10  1  0.750007  0.250004  0.750009  1
  O  O11  1  0.998277  0.237766  0.946319  1
  O  O12  1  0.237763  0.501743  0.446313  1
  O  O13  1  0.262259  0.998291  0.446326  1
  O  O14  1  0.501732  0.262255  0.946320  1
  O  O15  1  0.498300  0.762258  0.053688  1
  O  O16  1  0.762250  0.001729  0.553689  1
  O  O17  1  0.737767  0.498278  0.553682  1
  O  O18  1  0.001748  0.737761  0.053699  1
