# generated using pymatgen
data_LiGe
_symmetry_space_group_name_H-M   'P 1'
_cell_length_a   4.06998118
_cell_length_b   4.06998118
_cell_length_c   12.02234333
_cell_angle_alpha   99.74522595
_cell_angle_beta   99.74522596
_cell_angle_gamma   90.00000001
_symmetry_Int_Tables_number   1
_chemical_formula_structural   LiGe
_chemical_formula_sum   'Li6 Ge6'
_cell_volume   193.35705172
_cell_formula_units_Z   6
loop_
 _symmetry_equiv_pos_site_id
 _symmetry_equiv_pos_as_xyz
  1  'x, y, z'
loop_
 _atom_site_type_symbol
 _atom_site_label
 _atom_site_symmetry_multiplicity
 _atom_site_fract_x
 _atom_site_fract_y
 _atom_site_fract_z
 _atom_site_occupancy
  Li  Li1  1  0.375000  0.125000  0.250000  1
  Li  Li2  1  0.625000  0.875000  0.750000  1
  Li  Li3  1  0.461899  0.711899  0.423798  1
  Li  Li4  1  0.211899  0.961899  0.923798  1
  Li  Li5  1  0.538101  0.288101  0.576202  1
  Li  Li6  1  0.788101  0.038101  0.076202  1
  Ge  Ge7  1  0.125000  0.375000  0.750000  1
  Ge  Ge8  1  0.875000  0.625000  0.250000  1
  Ge  Ge9  1  0.297697  0.547697  0.095394  1
  Ge  Ge10  1  0.047697  0.797697  0.595394  1
  Ge  Ge11  1  0.702303  0.452303  0.904606  1
  Ge  Ge12  1  0.952303  0.202303  0.404606  1
