# generated using pymatgen
data_Li(CoO2)4
_symmetry_space_group_name_H-M   'P 1'
_cell_length_a   10.59285181
_cell_length_b   10.59285223
_cell_length_c   5.29232828
_cell_angle_alpha   31.62816400
_cell_angle_beta   31.62816869
_cell_angle_gamma   31.47993244
_symmetry_Int_Tables_number   1
_chemical_formula_structural   Li(CoO2)4
_chemical_formula_sum   'Li1 Co4 O8'
_cell_volume   144.59381662
_cell_formula_units_Z   1
loop_
 _symmetry_equiv_pos_site_id
 _symmetry_equiv_pos_as_xyz
  1  'x, y, z'
loop_
 _atom_site_type_symbol
 _atom_site_label
 _atom_site_symmetry_multiplicity
 _atom_site_fract_x
 _atom_site_fract_y
 _atom_site_fract_z
 _atom_site_occupancy
  Li  Li1  1  0.750000  0.750000  0.500000  1
  Co  Co2  1  0.003724  0.003724  0.002539  1
  Co  Co3  1  0.000505  0.499495  1.000000  1
  Co  Co4  1  0.499495  0.000505  0.000000  1
  Co  Co5  1  0.496276  0.496276  -0.002539  1
  O  O6  1  0.139389  0.139389  0.256220  1
  O  O7  1  0.113721  0.637132  0.300994  1
  O  O8  1  0.637132  0.113721  0.300994  1
  O  O9  1  0.642451  0.642451  0.226555  1
  O  O10  1  0.360611  0.360611  0.743780  1
  O  O11  1  0.386279  0.862868  0.699006  1
  O  O12  1  0.862868  0.386279  0.699006  1
  O  O13  1  0.857549  0.857549  0.773445  1
