# generated using pymatgen
data_Li3(CoO2)4
_symmetry_space_group_name_H-M   'P 1'
_cell_length_a   10.37994832
_cell_length_b   10.37994887
_cell_length_c   5.20659475
_cell_angle_alpha   32.80256548
_cell_angle_beta   32.80256406
_cell_angle_gamma   32.94131337
_symmetry_Int_Tables_number   1
_chemical_formula_structural   Li3(CoO2)4
_chemical_formula_sum   'Li3 Co4 O8'
_cell_volume   146.84485041
_cell_formula_units_Z   1
loop_
 _symmetry_equiv_pos_site_id
 _symmetry_equiv_pos_as_xyz
  1  'x, y, z'
loop_
 _atom_site_type_symbol
 _atom_site_label
 _atom_site_symmetry_multiplicity
 _atom_site_fract_x
 _atom_site_fract_y
 _atom_site_fract_z
 _atom_site_occupancy
  Li  Li1  1  0.250000  0.750000  0.500000  1
  Li  Li2  1  0.750000  0.250000  0.500000  1
  Li  Li3  1  0.750000  0.750000  0.500000  1
  Co  Co4  1  0.005773  0.005773  0.997654  1
  Co  Co5  1  0.002620  0.497380  0.000000  1
  Co  Co6  1  0.497380  0.002620  1.000000  1
  Co  Co7  1  0.494227  0.494227  0.002346  1
  O  O8  1  0.124541  0.124541  0.288322  1
  O  O9  1  0.121719  0.644943  0.253921  1
  O  O10  1  0.644943  0.121719  0.253921  1
  O  O11  1  0.626910  0.626910  0.257520  1
  O  O12  1  0.375459  0.375459  0.711678  1
  O  O13  1  0.378281  0.855057  0.746079  1
  O  O14  1  0.855057  0.378281  0.746079  1
  O  O15  1  0.873090  0.873090  0.742480  1
