# generated using pymatgen
data_LiLu3
_symmetry_space_group_name_H-M   'P 1'
_cell_length_a   6.84037045
_cell_length_b   6.83827882
_cell_length_c   5.41376277
_cell_angle_alpha   89.98761799
_cell_angle_beta   90.01844237
_cell_angle_gamma   120.00514342
_symmetry_Int_Tables_number   1
_chemical_formula_structural   LiLu3
_chemical_formula_sum   'Li2 Lu6'
_cell_volume   219.29753267
_cell_formula_units_Z   2
loop_
 _symmetry_equiv_pos_site_id
 _symmetry_equiv_pos_as_xyz
  1  'x, y, z'
loop_
 _atom_site_type_symbol
 _atom_site_label
 _atom_site_symmetry_multiplicity
 _atom_site_fract_x
 _atom_site_fract_y
 _atom_site_fract_z
 _atom_site_occupancy
  Li  Li1  1  0.666680  0.333327  0.250000  1
  Li  Li2  1  0.333332  0.666675  0.750000  1
  Lu  Lu3  1  0.832139  0.167866  0.750016  1
  Lu  Lu4  1  0.335713  0.167832  0.750007  1
  Lu  Lu5  1  0.832160  0.664288  0.750017  1
  Lu  Lu6  1  0.167847  0.832096  0.249986  1
  Lu  Lu7  1  0.664260  0.832145  0.249971  1
  Lu  Lu8  1  0.167867  0.335769  0.250007  1
