# generated using pymatgen
data_Li2Co4O5
_symmetry_space_group_name_H-M   'P 1'
_cell_length_a   6.11282242
_cell_length_b   6.11282182
_cell_length_c   12.24528203
_cell_angle_alpha   59.48519139
_cell_angle_beta   59.48519471
_cell_angle_gamma   59.76673791
_symmetry_Int_Tables_number   1
_chemical_formula_structural   Li2Co4O5
_chemical_formula_sum   'Li6 Co12 O15'
_cell_volume   320.44565430
_cell_formula_units_Z   3
loop_
 _symmetry_equiv_pos_site_id
 _symmetry_equiv_pos_as_xyz
  1  'x, y, z'
loop_
 _atom_site_type_symbol
 _atom_site_label
 _atom_site_symmetry_multiplicity
 _atom_site_fract_x
 _atom_site_fract_y
 _atom_site_fract_z
 _atom_site_occupancy
  Li  Li1  1  0.013960  0.013960  0.020543  1
  Li  Li2  1  0.156666  0.156666  0.097854  1
  Li  Li3  1  0.941214  0.505154  0.977965  1
  Li  Li4  1  0.505154  0.941214  0.977965  1
  Li  Li5  1  0.945581  0.945581  0.297716  1
  Li  Li6  1  0.902124  0.902124  0.936387  1
  Co  Co7  1  0.493054  0.493054  0.004174  1
  Co  Co8  1  0.509062  0.509062  0.242606  1
  Co  Co9  1  0.001794  0.490215  0.756681  1
  Co  Co10  1  0.496615  0.496615  0.492427  1
  Co  Co11  1  0.519945  -0.000055  0.243615  1
  Co  Co12  1  0.490215  0.001794  0.756681  1
  Co  Co13  1  0.491601  0.491601  0.763389  1
  Co  Co14  1  -0.000055  0.519945  0.243615  1
  Co  Co15  1  0.500587  0.992681  0.498547  1
  Co  Co16  1  0.992681  0.500587  0.498547  1
  Co  Co17  1  0.996138  0.996138  0.491915  1
  Co  Co18  1  0.013757  0.013757  0.708600  1
  O  O19  1  0.245381  0.245381  0.368408  1
  O  O20  1  0.257154  0.744702  0.125652  1
  O  O21  1  0.744702  0.257154  0.125652  1
  O  O22  1  0.243479  0.243479  0.624208  1
  O  O23  1  0.251169  0.757944  0.365860  1
  O  O24  1  0.249926  0.249926  0.893640  1
  O  O25  1  0.756663  0.756663  0.126044  1
  O  O26  1  0.757944  0.251169  0.365860  1
  O  O27  1  0.256832  0.732101  0.620957  1
  O  O28  1  0.732101  0.256832  0.620957  1
  O  O29  1  0.734473  0.734473  0.382482  1
  O  O30  1  0.273763  0.740350  0.884808  1
  O  O31  1  0.748833  0.748833  0.619966  1
  O  O32  1  0.740350  0.273763  0.884808  1
  O  O33  1  0.783140  0.783140  0.854471  1
