# generated using pymatgen
data_Li6CoO4
_symmetry_space_group_name_H-M   'P 1'
_cell_length_a   4.69809806
_cell_length_b   6.59381541
_cell_length_c   6.59381541
_cell_angle_alpha   90.00000000
_cell_angle_beta   90.00000000
_cell_angle_gamma   90.00000000
_symmetry_Int_Tables_number   1
_chemical_formula_structural   Li6CoO4
_chemical_formula_sum   'Li12 Co2 O8'
_cell_volume   204.26579450
_cell_formula_units_Z   2
loop_
 _symmetry_equiv_pos_site_id
 _symmetry_equiv_pos_as_xyz
  1  'x, y, z'
loop_
 _atom_site_type_symbol
 _atom_site_label
 _atom_site_symmetry_multiplicity
 _atom_site_fract_x
 _atom_site_fract_y
 _atom_site_fract_z
 _atom_site_occupancy
  Li  Li1  1  0.750000  0.032237  0.532237  1
  Li  Li2  1  0.250000  0.967763  0.032237  1
  Li  Li3  1  0.298743  0.750000  0.750000  1
  Li  Li4  1  0.250000  0.967763  0.467763  1
  Li  Li5  1  0.750000  0.467763  0.532237  1
  Li  Li6  1  0.798743  0.750000  0.750000  1
  Li  Li7  1  0.250000  0.532237  0.467763  1
  Li  Li8  1  0.750000  0.467763  0.967763  1
  Li  Li9  1  0.250000  0.532237  0.032237  1
  Li  Li10  1  0.701257  0.250000  0.250000  1
  Li  Li11  1  0.750000  0.032237  0.967763  1
  Li  Li12  1  0.201257  0.250000  0.250000  1
  Co  Co13  1  0.750000  0.750000  0.250000  1
  Co  Co14  1  0.250000  0.250000  0.750000  1
  O  O15  1  0.036530  0.986685  0.750000  1
  O  O16  1  0.463470  0.250000  0.486685  1
  O  O17  1  0.963470  0.486685  0.250000  1
  O  O18  1  0.463470  0.250000  0.013315  1
  O  O19  1  0.536530  0.750000  0.986685  1
  O  O20  1  0.036530  0.513315  0.750000  1
  O  O21  1  0.963470  0.013315  0.250000  1
  O  O22  1  0.536530  0.750000  0.513315  1
