# generated using pymatgen
data_LiCoO2
_symmetry_space_group_name_H-M   'P 1'
_cell_length_a   5.91027976
_cell_length_b   5.90306157
_cell_length_c   5.88081396
_cell_angle_alpha   120.30222927
_cell_angle_beta   90.46359898
_cell_angle_gamma   59.53212759
_symmetry_Int_Tables_number   1
_chemical_formula_structural   LiCoO2
_chemical_formula_sum   'Li4 Co4 O8'
_cell_volume   143.97145767
_cell_formula_units_Z   4
loop_
 _symmetry_equiv_pos_site_id
 _symmetry_equiv_pos_as_xyz
  1  'x, y, z'
loop_
 _atom_site_type_symbol
 _atom_site_label
 _atom_site_symmetry_multiplicity
 _atom_site_fract_x
 _atom_site_fract_y
 _atom_site_fract_z
 _atom_site_occupancy
  Li  Li1  1  0.500017  0.000003  0.999988  1
  Li  Li2  1  0.500016  0.499990  0.499973  1
  Li  Li3  1  0.000023  0.999990  0.999981  1
  Li  Li4  1  0.500010  0.500003  0.999981  1
  Co  Co5  1  0.000011  0.499997  0.999987  1
  Co  Co6  1  0.000011  0.499998  0.499987  1
  Co  Co7  1  0.500011  0.999996  0.499986  1
  Co  Co8  1  0.000009  -0.000002  0.499986  1
  O  O9  1  0.758001  0.988450  0.257716  1
  O  O10  1  0.751734  0.516930  0.264998  1
  O  O11  1  0.230835  0.513532  0.257043  1
  O  O12  1  0.754749  0.992874  0.736382  1
  O  O13  1  0.245272  0.007121  0.263590  1
  O  O14  1  0.769186  0.486464  0.742930  1
  O  O15  1  0.248288  0.483063  0.734974  1
  O  O16  1  0.242021  0.011543  0.742257  1
