# generated using pymatgen
data_Li5AuO4
_symmetry_space_group_name_H-M   'P 1'
_cell_length_a   4.78043179
_cell_length_b   4.77990217
_cell_length_c   10.05215109
_cell_angle_alpha   100.51811923
_cell_angle_beta   79.24280258
_cell_angle_gamma   77.20225703
_symmetry_Int_Tables_number   1
_chemical_formula_structural   Li5AuO4
_chemical_formula_sum   'Li10 Au2 O8'
_cell_volume   213.95601905
_cell_formula_units_Z   2
loop_
 _symmetry_equiv_pos_site_id
 _symmetry_equiv_pos_as_xyz
  1  'x, y, z'
loop_
 _atom_site_type_symbol
 _atom_site_label
 _atom_site_symmetry_multiplicity
 _atom_site_fract_x
 _atom_site_fract_y
 _atom_site_fract_z
 _atom_site_occupancy
  Li  Li1  1  0.003461  0.999898  0.999795  1
  Li  Li2  1  0.104008  0.395390  0.792257  1
  Li  Li3  1  0.390581  0.104060  0.210372  1
  Li  Li4  1  0.855614  0.139237  0.282197  1
  Li  Li5  1  0.352131  0.642565  0.292109  1
  Li  Li6  1  0.145302  0.857225  0.716529  1
  Li  Li7  1  0.644062  0.358110  0.709888  1
  Li  Li8  1  0.752663  0.752911  0.498684  1
  Li  Li9  1  0.888676  0.607485  0.215551  1
  Li  Li10  1  0.611785  0.892161  0.781783  1
  Au  Au11  1  0.248632  0.249178  0.500495  1
  Au  Au12  1  0.499214  0.498541  0.000360  1
  O  O13  1  0.068971  0.420222  0.353183  1
  O  O14  1  0.422406  0.075748  0.647276  1
  O  O15  1  0.329613  0.677268  0.853402  1
  O  O16  1  0.673264  0.326233  0.147997  1
  O  O17  1  0.175519  0.817153  0.147505  1
  O  O18  1  0.819313  0.176776  0.852948  1
  O  O19  1  0.569619  0.929104  0.353015  1
  O  O20  1  0.931367  0.573960  0.647764  1
