# generated using pymatgen
data_KP
_symmetry_space_group_name_H-M   'P 1'
_cell_length_a   6.10428140
_cell_length_b   6.61684631
_cell_length_c   11.43207427
_cell_angle_alpha   90.00000000
_cell_angle_beta   90.00000000
_cell_angle_gamma   90.00000000
_symmetry_Int_Tables_number   1
_chemical_formula_structural   KP
_chemical_formula_sum   'K8 P8'
_cell_volume   461.75396195
_cell_formula_units_Z   8
loop_
 _symmetry_equiv_pos_site_id
 _symmetry_equiv_pos_as_xyz
  1  'x, y, z'
loop_
 _atom_site_type_symbol
 _atom_site_label
 _atom_site_symmetry_multiplicity
 _atom_site_fract_x
 _atom_site_fract_y
 _atom_site_fract_z
 _atom_site_occupancy
  P  P1  1  0.415510  0.938946  0.350639  1
  P  P2  1  0.915510  0.061054  0.149361  1
  P  P3  1  0.084490  0.438946  0.649361  1
  P  P4  1  0.584490  0.561054  0.850639  1
  P  P5  1  0.156003  0.832201  0.220604  1
  P  P6  1  0.656003  0.167799  0.279396  1
  P  P7  1  0.343997  0.332201  0.779396  1
  P  P8  1  0.843997  0.667799  0.720604  1
  K  K9  1  0.646792  0.633490  0.166929  1
  K  K10  1  0.146792  0.366510  0.333071  1
  K  K11  1  0.853208  0.133490  0.833071  1
  K  K12  1  0.353208  0.866510  0.666929  1
  K  K13  1  0.914886  0.895233  0.466093  1
  K  K14  1  0.414886  0.104767  0.033907  1
  K  K15  1  0.585114  0.395233  0.533907  1
  K  K16  1  0.085114  0.604767  0.966093  1
