# generated using pymatgen
data_LiCoO2
_symmetry_space_group_name_H-M   'P 1'
_cell_length_a   5.81394171
_cell_length_b   5.84753538
_cell_length_c   5.82480448
_cell_angle_alpha   120.45492809
_cell_angle_beta   91.03751585
_cell_angle_gamma   59.37026806
_symmetry_Int_Tables_number   1
_chemical_formula_structural   LiCoO2
_chemical_formula_sum   'Li4 Co4 O8'
_cell_volume   138.97766192
_cell_formula_units_Z   4
loop_
 _symmetry_equiv_pos_site_id
 _symmetry_equiv_pos_as_xyz
  1  'x, y, z'
loop_
 _atom_site_type_symbol
 _atom_site_label
 _atom_site_symmetry_multiplicity
 _atom_site_fract_x
 _atom_site_fract_y
 _atom_site_fract_z
 _atom_site_occupancy
  Li  Li1  1  0.500014  0.000001  0.999987  1
  Li  Li2  1  0.500014  0.499993  0.499977  1
  Li  Li3  1  0.000020  0.999992  0.999982  1
  Li  Li4  1  0.500010  0.500001  0.999983  1
  Co  Co5  1  0.000011  0.499997  0.999986  1
  Co  Co6  1  0.000010  0.499998  0.499986  1
  Co  Co7  1  0.500011  0.999997  0.499986  1
  Co  Co8  1  0.000011  0.999998  0.499986  1
  O  O9  1  0.742938  0.995504  0.268089  1
  O  O10  1  0.748705  0.523526  0.259977  1
  O  O11  1  0.226928  0.512587  0.246241  1
  O  O12  1  0.750769  0.985719  0.729724  1
  O  O13  1  0.249253  0.014275  0.270248  1
  O  O14  1  0.773094  0.487408  0.753731  1
  O  O15  1  0.251318  0.476467  0.739993  1
  O  O16  1  0.257086  0.004490  0.731883  1
