# generated using pymatgen
data_Sr3Li2
_symmetry_space_group_name_H-M   'P 1'
_cell_length_a   8.73377638
_cell_length_b   9.71659373
_cell_length_c   9.71659373
_cell_angle_alpha   90.00000000
_cell_angle_beta   90.00000000
_cell_angle_gamma   90.00000000
_symmetry_Int_Tables_number   1
_chemical_formula_structural   Sr3Li2
_chemical_formula_sum   'Sr12 Li8'
_cell_volume   824.57498744
_cell_formula_units_Z   4
loop_
 _symmetry_equiv_pos_site_id
 _symmetry_equiv_pos_as_xyz
  1  'x, y, z'
loop_
 _atom_site_type_symbol
 _atom_site_label
 _atom_site_symmetry_multiplicity
 _atom_site_fract_x
 _atom_site_fract_y
 _atom_site_fract_z
 _atom_site_occupancy
  Li  Li1  1  0.681876  0.887223  0.887223  1
  Li  Li2  1  0.681876  0.112777  0.112777  1
  Li  Li3  1  0.181876  0.387223  0.612777  1
  Li  Li4  1  0.181876  0.612777  0.387223  1
  Li  Li5  1  0.318124  0.887223  0.887223  1
  Li  Li6  1  0.818124  0.612777  0.387223  1
  Li  Li7  1  0.818124  0.387223  0.612777  1
  Li  Li8  1  0.318124  0.112777  0.112777  1
  Sr  Sr9  1  0.000000  0.149680  0.850320  1
  Sr  Sr10  1  0.500000  0.649680  0.649680  1
  Sr  Sr11  1  0.500000  0.350320  0.350320  1
  Sr  Sr12  1  0.000000  0.850320  0.149680  1
  Sr  Sr13  1  0.000000  0.711540  0.711540  1
  Sr  Sr14  1  0.500000  0.788460  0.211540  1
  Sr  Sr15  1  0.500000  0.211540  0.788460  1
  Sr  Sr16  1  0.000000  0.288460  0.288460  1
  Sr  Sr17  1  0.750000  0.500000  0.000000  1
  Sr  Sr18  1  0.250000  0.500000  0.000000  1
  Sr  Sr19  1  0.750000  0.000000  0.500000  1
  Sr  Sr20  1  0.250000  0.000000  0.500000  1
