# generated using pymatgen
data_Li4CoO4
_symmetry_space_group_name_H-M   'P 1'
_cell_length_a   9.19730400
_cell_length_b   9.35027335
_cell_length_c   9.14289338
_cell_angle_alpha   90.00000000
_cell_angle_beta   91.22541837
_cell_angle_gamma   90.00000000
_symmetry_Int_Tables_number   1
_chemical_formula_structural   Li4CoO4
_chemical_formula_sum   'Li32 Co8 O32'
_cell_volume   786.08438181
_cell_formula_units_Z   8
loop_
 _symmetry_equiv_pos_site_id
 _symmetry_equiv_pos_as_xyz
  1  'x, y, z'
loop_
 _atom_site_type_symbol
 _atom_site_label
 _atom_site_symmetry_multiplicity
 _atom_site_fract_x
 _atom_site_fract_y
 _atom_site_fract_z
 _atom_site_occupancy
  Li  Li1  1  0.111877  0.633182  0.128658  1
  Li  Li2  1  0.111877  0.866818  0.628658  1
  Li  Li3  1  0.155735  0.118986  0.403008  1
  Li  Li4  1  0.155735  0.381014  0.903008  1
  Li  Li5  1  0.319046  0.870549  0.916077  1
  Li  Li6  1  0.319046  0.629451  0.416077  1
  Li  Li7  1  0.358384  0.358774  0.347427  1
  Li  Li8  1  0.358384  0.141226  0.847427  1
  Li  Li9  1  0.355998  0.600444  0.824167  1
  Li  Li10  1  0.355998  0.899556  0.324167  1
  Li  Li11  1  0.399345  0.129892  0.129482  1
  Li  Li12  1  0.399345  0.370108  0.629482  1
  Li  Li13  1  0.600512  0.619792  0.363940  1
  Li  Li14  1  0.600512  0.880208  0.863940  1
  Li  Li15  1  0.606070  0.116888  0.656853  1
  Li  Li16  1  0.606070  0.383112  0.156853  1
  Li  Li17  1  0.616435  0.648074  0.630162  1
  Li  Li18  1  0.616435  0.851926  0.130162  1
  Li  Li19  1  0.639503  0.616964  0.897291  1
  Li  Li20  1  0.639503  0.883036  0.397291  1
  Li  Li21  1  0.670722  0.115170  0.102085  1
  Li  Li22  1  0.670722  0.384830  0.602085  1
  Li  Li23  1  0.830463  0.618017  0.107876  1
  Li  Li24  1  0.830463  0.881983  0.607876  1
  Li  Li25  1  0.879743  0.382918  0.401021  1
  Li  Li26  1  0.879743  0.117082  0.901022  1
  Li  Li27  1  0.888804  0.146175  0.637477  1
  Li  Li28  1  0.888804  0.353825  0.137477  1
  Li  Li29  1  0.905382  0.614210  0.662468  1
  Li  Li30  1  0.905382  0.885790  0.162468  1
  Li  Li31  1  0.891898  0.120159  0.365595  1
  Li  Li32  1  0.891898  0.379841  0.865595  1
  Co  Co33  1  0.127353  0.138950  0.113144  1
  Co  Co34  1  0.127353  0.361050  0.613144  1
  Co  Co35  1  0.386097  0.624631  0.117909  1
  Co  Co36  1  0.386097  0.875369  0.617909  1
  Co  Co37  1  0.620454  0.151210  0.378387  1
  Co  Co38  1  0.620454  0.348790  0.878387  1
  Co  Co39  1  0.875508  0.652211  0.383436  1
  Co  Co40  1  0.875508  0.847789  0.883436  1
  O  O41  1  0.006972  0.244299  0.501578  1
  O  O42  1  0.006972  0.255701  0.001578  1
  O  O43  1  0.016716  0.038452  0.233678  1
  O  O44  1  0.016716  0.461548  0.733678  1
  O  O45  1  0.252378  0.045028  0.001188  1
  O  O46  1  0.252378  0.454972  0.501188  1
  O  O47  1  0.252273  0.218048  0.241685  1
  O  O48  1  0.252273  0.281952  0.741685  1
  O  O49  1  0.275162  0.731850  0.231750  1
  O  O50  1  0.275162  0.768150  0.731750  1
  O  O51  1  0.260349  0.534662  0.000624  1
  O  O52  1  0.260349  0.965338  0.500624  1
  O  O53  1  0.476444  0.507134  0.249315  1
  O  O54  1  0.476444  0.992866  0.749315  1
  O  O55  1  0.498411  0.762372  0.495341  1
  O  O56  1  0.498411  0.737628  0.995341  1
  O  O57  1  0.524890  0.262037  0.499943  1
  O  O58  1  0.524890  0.237963  -0.000057  1
  O  O59  1  0.538150  0.016616  0.254489  1
  O  O60  1  0.538150  0.483384  0.754489  1
  O  O61  1  0.739455  0.040849  0.500150  1
  O  O62  1  0.739455  0.459151  0.000150  1
  O  O63  1  0.747165  0.251177  0.264214  1
  O  O64  1  0.747165  0.248823  0.764214  1
  O  O65  1  0.749519  0.754992  0.266269  1
  O  O66  1  0.749519  0.745008  0.766269  1
  O  O67  1  0.758352  0.539162  0.497749  1
  O  O68  1  0.758352  0.960838  0.997749  1
  O  O69  1  0.955303  0.528439  0.258286  1
  O  O70  1  0.955303  0.971561  0.758286  1
  O  O71  1  0.969481  0.756030  0.514334  1
  O  O72  1  0.969481  0.743970  0.014334  1
