# generated using pymatgen
data_Li4CoO4
_symmetry_space_group_name_H-M   'P 1'
_cell_length_a   9.21117074
_cell_length_b   5.25848506
_cell_length_c   15.98984374
_cell_angle_alpha   90.00000000
_cell_angle_beta   91.97330776
_cell_angle_gamma   90.00000000
_symmetry_Int_Tables_number   1
_chemical_formula_structural   Li4CoO4
_chemical_formula_sum   'Li32 Co8 O32'
_cell_volume   774.03762827
_cell_formula_units_Z   8
loop_
 _symmetry_equiv_pos_site_id
 _symmetry_equiv_pos_as_xyz
  1  'x, y, z'
loop_
 _atom_site_type_symbol
 _atom_site_label
 _atom_site_symmetry_multiplicity
 _atom_site_fract_x
 _atom_site_fract_y
 _atom_site_fract_z
 _atom_site_occupancy
  Li  Li1  1  0.152042  0.345408  0.351436  1
  Li  Li2  1  0.152042  0.154592  0.851436  1
  Li  Li3  1  0.193660  0.608223  0.161623  1
  Li  Li4  1  0.193660  0.891777  0.661623  1
  Li  Li5  1  0.248716  0.949887  0.284698  1
  Li  Li6  1  0.248716  0.550113  0.784698  1
  Li  Li7  1  0.279738  0.053838  0.483497  1
  Li  Li8  1  0.279738  0.446162  0.983497  1
  Li  Li9  1  0.387273  0.365441  0.242853  1
  Li  Li10  1  0.387273  0.134559  0.742853  1
  Li  Li11  1  0.359904  0.627057  0.412993  1
  Li  Li12  1  0.359904  0.872943  0.912993  1
  Li  Li13  1  0.547071  0.066537  0.054683  1
  Li  Li14  1  0.547071  0.433463  0.554683  1
  Li  Li15  1  0.582069  0.604653  0.746013  1
  Li  Li16  1  0.582069  0.895347  0.246013  1
  Li  Li17  1  0.676548  0.612490  0.002483  1
  Li  Li18  1  0.676548  0.887510  0.502483  1
  Li  Li19  1  0.682370  0.383074  0.175356  1
  Li  Li20  1  0.682370  0.116926  0.675356  1
  Li  Li21  1  0.701201  0.558487  0.359876  1
  Li  Li22  1  0.701201  0.941513  0.859876  1
  Li  Li23  1  0.806065  0.086578  0.351315  1
  Li  Li24  1  0.806065  0.413422  0.851315  1
  Li  Li25  1  0.839111  0.897654  0.170968  1
  Li  Li26  1  0.839111  0.602346  0.670968  1
  Li  Li27  1  0.857258  0.109473  0.994528  1
  Li  Li28  1  0.857258  0.390527  0.494528  1
  Li  Li29  1  0.945309  0.047832  0.741712  1
  Li  Li30  1  0.945309  0.452168  0.241712  1
  Li  Li31  1  0.981021  0.916992  0.551928  1
  Li  Li32  1  0.981021  0.583008  0.051928  1
  Co  Co33  1  0.065030  0.160321  0.135919  1
  Co  Co34  1  0.065030  0.339679  0.635919  1
  Co  Co35  1  0.464531  0.651282  0.120759  1
  Co  Co36  1  0.464531  0.848718  0.620759  1
  Co  Co37  1  0.536311  0.150197  0.383503  1
  Co  Co38  1  0.536311  0.349803  0.883503  1
  Co  Co39  1  0.968831  0.806982  0.876713  1
  Co  Co40  1  0.968831  0.693018  0.376713  1
  O  O41  1  0.038030  0.822983  0.134871  1
  O  O42  1  0.038030  0.677017  0.634871  1
  O  O43  1  0.159734  0.214303  0.729552  1
  O  O44  1  0.159734  0.285697  0.229552  1
  O  O45  1  0.159181  0.744772  0.370101  1
  O  O46  1  0.159181  0.755228  0.870101  1
  O  O47  1  0.129798  0.327487  0.049266  1
  O  O48  1  0.129798  0.172513  0.549266  1
  O  O49  1  0.386020  0.744553  0.524978  1
  O  O50  1  0.386020  0.755447  0.024978  1
  O  O51  1  0.348815  0.251944  0.881027  1
  O  O52  1  0.348815  0.248056  0.381027  1
  O  O53  1  0.375184  0.744947  0.215699  1
  O  O54  1  0.375184  0.755053  0.715699  1
  O  O55  1  0.481292  0.313138  0.130398  1
  O  O56  1  0.481292  0.186862  0.630398  1
  O  O57  1  0.554775  0.811534  0.379525  1
  O  O58  1  0.554775  0.688466  0.879525  1
  O  O59  1  0.627379  0.242335  0.790024  1
  O  O60  1  0.627379  0.257665  0.290024  1
  O  O61  1  0.651286  0.776488  0.126252  1
  O  O62  1  0.651286  0.723512  0.626252  1
  O  O63  1  0.656401  0.232847  0.966730  1
  O  O64  1  0.656401  0.267153  0.466730  1
  O  O65  1  0.863062  0.781718  0.464667  1
  O  O66  1  0.863062  0.718282  0.964667  1
  O  O67  1  0.873814  0.225194  0.640670  1
  O  O68  1  0.873814  0.274806  0.140670  1
  O  O69  1  0.848084  0.724086  0.787333  1
  O  O70  1  0.848084  0.775914  0.287333  1
  O  O71  1  0.944511  0.151817  0.873228  1
  O  O72  1  0.944511  0.348183  0.373228  1
