# generated using pymatgen
data_Li5Mg
_symmetry_space_group_name_H-M   'P 1'
_cell_length_a   3.12341093
_cell_length_b   8.01159142
_cell_length_c   4.97807453
_cell_angle_alpha   90.00000000
_cell_angle_beta   90.00000000
_cell_angle_gamma   78.75932216
_symmetry_Int_Tables_number   1
_chemical_formula_structural   Li5Mg
_chemical_formula_sum   'Li5 Mg1'
_cell_volume   122.17920681
_cell_formula_units_Z   1
loop_
 _symmetry_equiv_pos_site_id
 _symmetry_equiv_pos_as_xyz
  1  'x, y, z'
loop_
 _atom_site_type_symbol
 _atom_site_label
 _atom_site_symmetry_multiplicity
 _atom_site_fract_x
 _atom_site_fract_y
 _atom_site_fract_z
 _atom_site_occupancy
  Li  Li1  1  0.999166  0.001670  0.000000  1
  Li  Li2  1  0.333020  0.333961  0.000000  1
  Li  Li3  1  0.666415  0.667171  0.000000  1
  Li  Li4  1  0.444976  0.110050  0.499999  1
  Li  Li5  1  0.110911  0.778179  0.499999  1
  Mg  Mg6  1  0.778850  0.442304  0.499999  1
