# generated using pymatgen
data_Li2Cr5O12
_symmetry_space_group_name_H-M   'P 1'
_cell_length_a   12.53342022
_cell_length_b   9.10772354
_cell_length_c   9.06043755
_cell_angle_alpha   90.00000000
_cell_angle_beta   90.00000000
_cell_angle_gamma   90.00000000
_symmetry_Int_Tables_number   1
_chemical_formula_structural   Li2Cr5O12
_chemical_formula_sum   'Li8 Cr20 O48'
_cell_volume   1034.25733969
_cell_formula_units_Z   4
loop_
 _symmetry_equiv_pos_site_id
 _symmetry_equiv_pos_as_xyz
  1  'x, y, z'
loop_
 _atom_site_type_symbol
 _atom_site_label
 _atom_site_symmetry_multiplicity
 _atom_site_fract_x
 _atom_site_fract_y
 _atom_site_fract_z
 _atom_site_occupancy
  Li  Li1  1  0.189000  0.217675  0.272846  1
  Li  Li2  1  0.189000  0.782325  0.772846  1
  Li  Li3  1  0.311000  0.282325  0.772846  1
  Li  Li4  1  0.311000  0.717675  0.272846  1
  Li  Li5  1  0.689000  0.282325  0.727154  1
  Li  Li6  1  0.689000  0.717675  0.227154  1
  Li  Li7  1  0.811000  0.217675  0.227154  1
  Li  Li8  1  0.811000  0.782325  0.727154  1
  Cr  Cr9  1  0.000000  0.462684  0.250000  1
  Cr  Cr10  1  0.000000  0.537316  0.750000  1
  Cr  Cr11  1  0.120445  0.248781  0.966794  1
  Cr  Cr12  1  0.120445  0.751219  0.466794  1
  Cr  Cr13  1  0.142449  0.099652  0.604255  1
  Cr  Cr14  1  0.142449  0.900348  0.104255  1
  Cr  Cr15  1  0.357551  0.400348  0.104255  1
  Cr  Cr16  1  0.357551  0.599652  0.604255  1
  Cr  Cr17  1  0.379555  0.251219  0.466794  1
  Cr  Cr18  1  0.379555  0.748781  0.966794  1
  Cr  Cr19  1  0.500000  0.037316  0.750000  1
  Cr  Cr20  1  0.500000  0.962684  0.250000  1
  Cr  Cr21  1  0.620445  0.251219  0.033206  1
  Cr  Cr22  1  0.620445  0.748781  0.533206  1
  Cr  Cr23  1  0.642449  0.400348  0.395745  1
  Cr  Cr24  1  0.642449  0.599652  0.895745  1
  Cr  Cr25  1  0.857551  0.099652  0.895745  1
  Cr  Cr26  1  0.857551  0.900348  0.395745  1
  Cr  Cr27  1  0.879555  0.248781  0.533206  1
  Cr  Cr28  1  0.879555  0.751219  0.033206  1
  O  O29  1  0.015323  0.145859  0.565076  1
  O  O30  1  0.015323  0.854141  0.065076  1
  O  O31  1  0.065554  0.564793  0.368990  1
  O  O32  1  0.065554  0.435206  0.868990  1
  O  O33  1  0.087868  0.352547  0.162561  1
  O  O34  1  0.087868  0.647453  0.662561  1
  O  O35  1  0.162988  0.088444  0.103282  1
  O  O36  1  0.162988  0.911556  0.603282  1
  O  O37  1  0.174700  0.173580  0.775290  1
  O  O38  1  0.174700  0.826420  0.275290  1
  O  O39  1  0.228700  0.174524  0.475360  1
  O  O40  1  0.228700  0.825476  0.975360  1
  O  O41  1  0.271300  0.325476  0.975360  1
  O  O42  1  0.271300  0.674524  0.475360  1
  O  O43  1  0.325300  0.673580  0.775290  1
  O  O44  1  0.325300  0.326420  0.275290  1
  O  O45  1  0.337012  0.411556  0.603282  1
  O  O46  1  0.337012  0.588444  0.103282  1
  O  O47  1  0.412132  0.147453  0.662561  1
  O  O48  1  0.412132  0.852547  0.162561  1
  O  O49  1  0.434446  0.064794  0.368990  1
  O  O50  1  0.434446  0.935207  0.868990  1
  O  O51  1  0.484677  0.645859  0.565076  1
  O  O52  1  0.484677  0.354141  0.065076  1
  O  O53  1  0.515323  0.354141  0.434924  1
  O  O54  1  0.515323  0.645859  0.934924  1
  O  O55  1  0.565554  0.064794  0.131010  1
  O  O56  1  0.565554  0.935207  0.631010  1
  O  O57  1  0.587868  0.147453  0.837439  1
  O  O58  1  0.587868  0.852547  0.337439  1
  O  O59  1  0.662988  0.411556  0.896718  1
  O  O60  1  0.662988  0.588444  0.396718  1
  O  O61  1  0.674700  0.326420  0.224710  1
  O  O62  1  0.674700  0.673580  0.724710  1
  O  O63  1  0.728700  0.325476  0.524640  1
  O  O64  1  0.728700  0.674524  0.024640  1
  O  O65  1  0.771300  0.174524  0.024640  1
  O  O66  1  0.771300  0.825476  0.524640  1
  O  O67  1  0.825300  0.173580  0.724710  1
  O  O68  1  0.825300  0.826420  0.224710  1
  O  O69  1  0.837012  0.088444  0.396718  1
  O  O70  1  0.837012  0.911556  0.896718  1
  O  O71  1  0.912132  0.352547  0.337439  1
  O  O72  1  0.912132  0.647453  0.837439  1
  O  O73  1  0.934446  0.435206  0.631010  1
  O  O74  1  0.934446  0.564793  0.131010  1
  O  O75  1  0.984677  0.145859  0.934924  1
  O  O76  1  0.984677  0.854141  0.434924  1
