# generated using pymatgen
data_Li5B4
_symmetry_space_group_name_H-M   'P 1'
_cell_length_a   6.64997442
_cell_length_b   3.81832080
_cell_length_c   4.77913085
_cell_angle_alpha   85.57076117
_cell_angle_beta   134.08545678
_cell_angle_gamma   96.37312635
_symmetry_Int_Tables_number   1
_chemical_formula_structural   Li5B4
_chemical_formula_sum   'Li5 B4'
_cell_volume   86.62768574
_cell_formula_units_Z   1
loop_
 _symmetry_equiv_pos_site_id
 _symmetry_equiv_pos_as_xyz
  1  'x, y, z'
loop_
 _atom_site_type_symbol
 _atom_site_label
 _atom_site_symmetry_multiplicity
 _atom_site_fract_x
 _atom_site_fract_y
 _atom_site_fract_z
 _atom_site_occupancy
  Li  Li1  1  0.570408  0.288737  1.000000  1
  Li  Li2  1  0.388361  0.761420  0.509232  1
  Li  Li3  1  0.879129  0.761420  0.490768  1
  Li  Li4  1  0.373744  0.762952  0.000000  1
  Li  Li5  1  0.165348  0.240963  1.000000  1
  B  B6  1  0.849285  0.029563  0.000000  1
  B  B7  1  0.657357  0.276991  0.579300  1
  B  B8  1  0.078057  0.276991  0.420700  1
  B  B9  1  0.888310  0.525964  0.000000  1
