# generated using pymatgen
data_Li20B54O
_symmetry_space_group_name_H-M   'P 1'
_cell_length_a   8.21439980
_cell_length_b   8.19633590
_cell_length_c   12.51579842
_cell_angle_alpha   89.80904949
_cell_angle_beta   90.04639729
_cell_angle_gamma   119.95426720
_symmetry_Int_Tables_number   1
_chemical_formula_structural   Li20B54O
_chemical_formula_sum   'Li20 B54 O1'
_cell_volume   730.09959335
_cell_formula_units_Z   1
loop_
 _symmetry_equiv_pos_site_id
 _symmetry_equiv_pos_as_xyz
  1  'x, y, z'
loop_
 _atom_site_type_symbol
 _atom_site_label
 _atom_site_symmetry_multiplicity
 _atom_site_fract_x
 _atom_site_fract_y
 _atom_site_fract_z
 _atom_site_occupancy
  Li  Li1  1  0.141536  0.063578  0.160955  1
  Li  Li2  1  0.044398  0.101148  0.522759  1
  Li  Li3  1  0.195442  0.316941  0.678050  1
  Li  Li4  1  0.975886  0.048879  0.818667  1
  Li  Li5  1  0.335750  0.667853  0.002616  1
  Li  Li6  1  0.290017  0.645142  0.324155  1
  Li  Li7  1  0.324941  0.684940  0.668461  1
  Li  Li8  1  0.330607  0.165933  0.979376  1
  Li  Li9  1  0.273220  0.051905  0.675540  1
  Li  Li10  1  0.625298  0.812236  0.330268  1
  Li  Li11  1  0.699536  0.820803  0.665359  1
  Li  Li12  1  0.675990  0.340300  0.012231  1
  Li  Li13  1  0.661615  0.346286  0.670487  1
  Li  Li14  1  0.847367  0.696076  0.997516  1
  Li  Li15  1  0.467458  0.232851  0.334691  1
  Li  Li16  1  0.805866  0.593017  0.333543  1
  Li  Li17  1  0.957986  0.739454  0.669899  1
  Li  Li18  1  0.843367  0.153986  0.008922  1
  Li  Li19  1  0.844510  0.166786  0.666868  1
  Li  Li20  1  0.803541  0.213976  0.331336  1
  B  B21  1  0.994624  0.498693  0.263560  1
  B  B22  1  0.000356  0.492251  0.599495  1
  B  B23  1  0.004123  0.502930  0.931606  1
  B  B24  1  0.117784  0.672048  0.165228  1
  B  B25  1  0.124832  0.667013  0.502348  1
  B  B26  1  0.131337  0.672382  0.831198  1
  B  B27  1  0.322905  0.877953  0.164411  1
  B  B28  1  0.330276  0.873429  0.503558  1
  B  B29  1  0.338965  0.879128  0.830735  1
  B  B30  1  0.118370  0.450138  0.165076  1
  B  B31  1  0.122981  0.446750  0.499650  1
  B  B32  1  0.131200  0.452527  0.835731  1
  B  B33  1  0.510947  0.000096  0.598778  1
  B  B34  1  0.322733  0.447261  0.164044  1
  B  B35  1  0.328279  0.447345  0.500701  1
  B  B36  1  0.337922  0.454371  0.835345  1
  B  B37  1  0.539894  0.873845  0.163492  1
  B  B38  1  0.557250  0.879115  0.835310  1
  B  B39  1  0.548612  0.873651  0.500227  1
  B  B40  1  0.539903  0.667715  0.163148  1
  B  B41  1  0.547049  0.667831  0.499553  1
  B  B42  1  0.556774  0.673455  0.834827  1
  B  B43  1  0.501901  0.499414  0.066473  1
  B  B44  1  0.499364  0.499740  0.402159  1
  B  B45  1  0.506427  0.507416  0.734446  1
  B  B46  1  0.496731  0.500595  0.264051  1
  B  B47  1  0.509740  0.499408  0.930444  1
  B  B48  1  0.502008  0.503636  0.598819  1
  B  B49  1  0.462084  0.332660  0.828076  1
  B  B50  1  0.448335  0.329164  0.165886  1
  B  B51  1  0.452017  0.326985  0.502930  1
  B  B52  1  0.448679  0.121050  0.165859  1
  B  B53  1  0.453884  0.119352  0.502359  1
  B  B54  1  0.465353  0.126940  0.829069  1
  B  B55  1  0.667979  0.549514  0.165489  1
  B  B56  1  0.671263  0.544799  0.502757  1
  B  B57  1  0.680036  0.551463  0.830259  1
  B  B58  1  0.495835  0.995158  0.264198  1
  B  B59  1  0.505851  0.004772  0.930588  1
  B  B60  1  0.500013  0.002456  0.066671  1
  B  B61  1  0.516024  0.003119  0.734526  1
  B  B62  1  0.497342  0.994628  0.402406  1
  B  B63  1  0.874688  0.550315  0.164652  1
  B  B64  1  0.877827  0.544095  0.503274  1
  B  B65  1  0.884886  0.548499  0.831194  1
  B  B66  1  0.666970  0.121174  0.165607  1
  B  B67  1  0.681862  0.122929  0.835010  1
  B  B68  1  0.673524  0.118882  0.499047  1
  B  B69  1  0.873967  0.329032  0.164881  1
  B  B70  1  0.887275  0.328801  0.835533  1
  B  B71  1  0.879802  0.324519  0.500241  1
  B  B72  1  0.998342  0.498773  0.402606  1
  B  B73  1  0.997231  0.501208  0.066952  1
  B  B74  1  0.005481  0.494637  0.734941  1
  O  O75  1  0.003332  0.024349  0.668878  1
