# generated using pymatgen
data_Li2Mg
_symmetry_space_group_name_H-M   'P 1'
_cell_length_a   9.14176608
_cell_length_b   5.26491690
_cell_length_c   4.99747432
_cell_angle_alpha   90.00000000
_cell_angle_beta   90.00000000
_cell_angle_gamma   90.00000000
_symmetry_Int_Tables_number   1
_chemical_formula_structural   Li2Mg
_chemical_formula_sum   'Li8 Mg4'
_cell_volume   240.53163106
_cell_formula_units_Z   4
loop_
 _symmetry_equiv_pos_site_id
 _symmetry_equiv_pos_as_xyz
  1  'x, y, z'
loop_
 _atom_site_type_symbol
 _atom_site_label
 _atom_site_symmetry_multiplicity
 _atom_site_fract_x
 _atom_site_fract_y
 _atom_site_fract_z
 _atom_site_occupancy
  Li  Li1  1  0.167063  0.166259  0.750000  1
  Li  Li2  1  0.332937  0.666259  0.750000  1
  Li  Li3  1  0.167063  0.833741  0.250000  1
  Li  Li4  1  0.332937  0.333741  0.250000  1
  Li  Li5  1  0.667063  0.666259  0.750000  1
  Li  Li6  1  0.832937  0.166259  0.750000  1
  Li  Li7  1  0.667063  0.333741  0.250000  1
  Li  Li8  1  0.832937  0.833741  0.250000  1
  Mg  Mg9  1  0.000000  0.669250  0.750000  1
  Mg  Mg10  1  0.000000  0.330750  0.250000  1
  Mg  Mg11  1  0.500000  0.169250  0.750000  1
  Mg  Mg12  1  0.500000  0.830750  0.250000  1
