# generated using pymatgen
data_Li2CrO3
_symmetry_space_group_name_H-M   'P 1'
_cell_length_a   5.03894019
_cell_length_b   5.03098949
_cell_length_c   9.74544180
_cell_angle_alpha   94.71697555
_cell_angle_beta   80.54877917
_cell_angle_gamma   120.05229232
_symmetry_Int_Tables_number   1
_chemical_formula_structural   Li2CrO3
_chemical_formula_sum   'Li8 Cr4 O12'
_cell_volume   210.94056108
_cell_formula_units_Z   4
loop_
 _symmetry_equiv_pos_site_id
 _symmetry_equiv_pos_as_xyz
  1  'x, y, z'
loop_
 _atom_site_type_symbol
 _atom_site_label
 _atom_site_symmetry_multiplicity
 _atom_site_fract_x
 _atom_site_fract_y
 _atom_site_fract_z
 _atom_site_occupancy
  Li  Li1  1  0.162461  0.841718  0.498486  1
  Li  Li2  1  0.000000  0.500000  0.000000  1
  Li  Li3  1  0.081914  0.163828  0.750000  1
  Li  Li4  1  0.500000  0.500000  0.500000  1
  Li  Li5  1  0.320743  0.158282  0.998486  1
  Li  Li6  1  0.679257  0.841718  0.001514  1
  Li  Li7  1  0.918086  0.836172  0.250000  1
  Li  Li8  1  0.837539  0.158282  0.501514  1
  Cr  Cr9  1  0.414130  0.828259  0.750000  1
  Cr  Cr10  1  0.251174  0.502348  0.250000  1
  Cr  Cr11  1  0.748826  0.497652  0.750000  1
  Cr  Cr12  1  0.585870  0.171741  0.250000  1
  O  O13  1  0.044101  0.811829  0.865902  1
  O  O14  1  0.120649  0.532047  0.638486  1
  O  O15  1  0.411398  0.532047  0.861514  1
  O  O16  1  0.312982  0.833757  0.138294  1
  O  O17  1  0.232272  0.188171  0.365902  1
  O  O18  1  0.520776  0.833757  0.361706  1
  O  O19  1  0.479224  0.166243  0.638294  1
  O  O20  1  0.767728  0.811829  0.634098  1
  O  O21  1  0.687018  0.166243  0.861706  1
  O  O22  1  0.588602  0.467953  0.138486  1
  O  O23  1  0.879351  0.467953  0.361514  1
  O  O24  1  0.955899  0.188171  0.134098  1
