# generated using pymatgen
data_Li3Cr
_symmetry_space_group_name_H-M   'P 1'
_cell_length_a   5.86605696
_cell_length_b   5.86601675
_cell_length_c   4.89948698
_cell_angle_alpha   90.01417775
_cell_angle_beta   89.98543506
_cell_angle_gamma   120.03437572
_symmetry_Int_Tables_number   1
_chemical_formula_structural   Li3Cr
_chemical_formula_sum   'Li6 Cr2'
_cell_volume   145.95542936
_cell_formula_units_Z   2
loop_
 _symmetry_equiv_pos_site_id
 _symmetry_equiv_pos_as_xyz
  1  'x, y, z'
loop_
 _atom_site_type_symbol
 _atom_site_label
 _atom_site_symmetry_multiplicity
 _atom_site_fract_x
 _atom_site_fract_y
 _atom_site_fract_z
 _atom_site_occupancy
  Li  Li1  1  0.167476  0.334918  0.250007  1
  Li  Li2  1  0.665045  0.832496  0.250010  1
  Li  Li3  1  0.167404  0.832571  0.249999  1
  Li  Li4  1  0.832429  0.664922  0.749994  1
  Li  Li5  1  0.335052  0.167544  0.749991  1
  Li  Li6  1  0.832495  0.167471  0.750003  1
  Cr  Cr7  1  0.333231  0.666851  0.749946  1
  Cr  Cr8  1  0.666870  0.333230  0.250054  1
