# generated using pymatgen
data_Li3Er
_symmetry_space_group_name_H-M   'P 1'
_cell_length_a   6.47759905
_cell_length_b   6.47759892
_cell_length_c   5.04748035
_cell_angle_alpha   90.00000000
_cell_angle_beta   90.00000000
_cell_angle_gamma   120.00000059
_symmetry_Int_Tables_number   1
_chemical_formula_structural   Li3Er
_chemical_formula_sum   'Li6 Er2'
_cell_volume   183.41438025
_cell_formula_units_Z   2
loop_
 _symmetry_equiv_pos_site_id
 _symmetry_equiv_pos_as_xyz
  1  'x, y, z'
loop_
 _atom_site_type_symbol
 _atom_site_label
 _atom_site_symmetry_multiplicity
 _atom_site_fract_x
 _atom_site_fract_y
 _atom_site_fract_z
 _atom_site_occupancy
  Li  Li1  1  0.152350  0.304700  0.249999  1
  Li  Li2  1  0.695301  0.847650  0.249999  1
  Li  Li3  1  0.152349  0.847650  0.249999  1
  Li  Li4  1  0.847651  0.695301  0.750000  1
  Li  Li5  1  0.304700  0.152350  0.750000  1
  Li  Li6  1  0.847652  0.152350  0.750000  1
  Er  Er7  1  0.333334  0.666667  0.750000  1
  Er  Er8  1  0.666667  0.333334  0.249999  1
