# generated using pymatgen
data_Li15Cr2O12
_symmetry_space_group_name_H-M   'P 1'
_cell_length_a   5.45328579
_cell_length_b   7.96766645
_cell_length_c   5.78262860
_cell_angle_alpha   94.57760755
_cell_angle_beta   89.86181070
_cell_angle_gamma   89.84315221
_symmetry_Int_Tables_number   1
_chemical_formula_structural   Li15Cr2O12
_chemical_formula_sum   'Li15 Cr2 O12'
_cell_volume   250.45171706
_cell_formula_units_Z   1
loop_
 _symmetry_equiv_pos_site_id
 _symmetry_equiv_pos_as_xyz
  1  'x, y, z'
loop_
 _atom_site_type_symbol
 _atom_site_label
 _atom_site_symmetry_multiplicity
 _atom_site_fract_x
 _atom_site_fract_y
 _atom_site_fract_z
 _atom_site_occupancy
  Li  Li1  1  0.004859  0.644177  0.673863  1
  Li  Li2  1  0.872489  0.627269  0.262904  1
  Li  Li3  1  0.797906  0.917852  0.596586  1
  Li  Li4  1  0.812233  0.303788  0.947405  1
  Li  Li5  1  0.697218  0.208814  0.560255  1
  Li  Li6  1  0.663635  0.583790  0.904293  1
  Li  Li7  1  0.625102  0.875086  0.197699  1
  Li  Li8  1  0.497802  0.166498  0.193724  1
  Li  Li9  1  0.373078  0.106190  0.787054  1
  Li  Li10  1  0.334458  0.432337  0.075247  1
  Li  Li11  1  0.309289  0.793821  0.472400  1
  Li  Li12  1  0.218152  0.713010  0.040720  1
  Li  Li13  1  0.150136  0.072640  0.430087  1
  Li  Li14  1  0.143585  0.363043  0.724477  1
  Li  Li15  1  0.004783  0.348630  0.322222  1
  Cr  Cr16  1  0.502776  0.500856  0.494965  1
  Cr  Cr17  1  0.998283  0.998486  0.000367  1
  O  O18  1  0.875918  0.771909  -0.000036  1
  O  O19  1  0.829149  0.065316  0.305624  1
  O  O20  1  0.810883  0.426162  0.662935  1
  O  O21  1  0.714484  0.078457  0.859020  1
  O  O22  1  0.660354  0.429855  0.196132  1
  O  O23  1  0.642541  0.719987  0.481619  1
  O  O24  1  0.361152  0.265099  0.499493  1
  O  O25  1  0.338136  0.559793  0.790745  1
  O  O26  1  0.279031  0.939752  0.166501  1
  O  O27  1  0.199238  0.576610  0.331206  1
  O  O28  1  0.135319  0.935265  0.703041  1
  O  O29  1  0.145868  0.228660  0.001230  1
