# generated using pymatgen
data_Li2Cr2O7
_symmetry_space_group_name_H-M   'P 1'
_cell_length_a   6.73529999
_cell_length_b   6.76265003
_cell_length_c   6.46926518
_cell_angle_alpha   111.02097776
_cell_angle_beta   93.36854430
_cell_angle_gamma   93.26268504
_symmetry_Int_Tables_number   1
_chemical_formula_structural   Li2Cr2O7
_chemical_formula_sum   'Li4 Cr4 O14'
_cell_volume   273.61631850
_cell_formula_units_Z   2
loop_
 _symmetry_equiv_pos_site_id
 _symmetry_equiv_pos_as_xyz
  1  'x, y, z'
loop_
 _atom_site_type_symbol
 _atom_site_label
 _atom_site_symmetry_multiplicity
 _atom_site_fract_x
 _atom_site_fract_y
 _atom_site_fract_z
 _atom_site_occupancy
  Li  Li1  1  0.168339  0.175258  0.747163  1
  Li  Li2  1  0.374233  0.547466  0.287877  1
  Li  Li3  1  0.625767  0.452534  0.712123  1
  Li  Li4  1  0.831661  0.824742  0.252837  1
  Cr  Cr5  1  0.154602  0.678319  0.795290  1
  Cr  Cr6  1  0.334960  0.022164  0.243520  1
  Cr  Cr7  1  0.665040  0.977836  0.756480  1
  Cr  Cr8  1  0.845398  0.321681  0.204710  1
  O  O9  1  0.065869  0.344861  0.117927  1
  O  O10  1  0.145149  0.659977  0.537609  1
  O  O11  1  0.138277  0.998133  0.370768  1
  O  O12  1  0.257694  0.946038  0.955088  1
  O  O13  1  0.292707  0.498777  0.835673  1
  O  O14  1  0.434355  0.268196  0.343389  1
  O  O15  1  0.508364  0.148714  0.732876  1
  O  O16  1  0.491636  0.851286  0.267123  1
  O  O17  1  0.565645  0.731804  0.656611  1
  O  O18  1  0.707293  0.501223  0.164327  1
  O  O19  1  0.742306  0.053962  0.044912  1
  O  O20  1  0.861723  0.001867  0.629232  1
  O  O21  1  0.854851  0.340023  0.462391  1
  O  O22  1  0.934131  0.655139  0.882073  1
