# generated using pymatgen
data_Li27Sb10
_symmetry_space_group_name_H-M   'P 1'
_cell_length_a   9.26527504
_cell_length_b   22.98030483
_cell_length_c   7.94100972
_cell_angle_alpha   30.24345901
_cell_angle_beta   54.41418285
_cell_angle_gamma   59.82001029
_symmetry_Int_Tables_number   1
_chemical_formula_structural   Li27Sb10
_chemical_formula_sum   'Li27 Sb10'
_cell_volume   692.56708057
_cell_formula_units_Z   1
loop_
 _symmetry_equiv_pos_site_id
 _symmetry_equiv_pos_as_xyz
  1  'x, y, z'
loop_
 _atom_site_type_symbol
 _atom_site_label
 _atom_site_symmetry_multiplicity
 _atom_site_fract_x
 _atom_site_fract_y
 _atom_site_fract_z
 _atom_site_occupancy
  Li  Li1  1  0.106326  0.200034  0.261938  1
  Li  Li2  1  0.250000  0.200378  0.499056  1
  Li  Li3  1  0.393674  0.999966  0.738062  1
  Li  Li4  1  0.132968  0.411903  0.206924  1
  Li  Li5  1  0.636357  0.190315  0.275826  1
  Li  Li6  1  0.393674  0.200034  0.737895  1
  Li  Li7  1  0.250000  0.396559  0.508602  1
  Li  Li8  1  0.133034  0.600000  0.262623  1
  Li  Li9  1  0.132968  0.788097  0.266441  1
  Li  Li10  1  0.631420  0.389540  0.262436  1
  Li  Li11  1  0.367032  0.411903  0.733559  1
  Li  Li12  1  0.863643  0.009685  0.724174  1
  Li  Li13  1  0.106326  0.999966  0.262105  1
  Li  Li14  1  0.863643  0.190315  0.772600  1
  Li  Li15  1  0.750000  0.398978  0.502556  1
  Li  Li16  1  0.605292  0.600000  0.262242  1
  Li  Li17  1  0.250000  0.803441  0.491398  1
  Li  Li18  1  0.366966  0.600000  0.737377  1
  Li  Li19  1  0.250000  0.999622  0.500944  1
  Li  Li20  1  0.868580  0.389540  0.789862  1
  Li  Li21  1  0.750000  0.600000  0.500000  1
  Li  Li22  1  0.631420  0.810460  0.210138  1
  Li  Li23  1  0.367032  0.788097  0.793076  1
  Li  Li24  1  0.750000  0.801022  0.497444  1
  Li  Li25  1  0.636357  0.009685  0.227400  1
  Li  Li26  1  0.894708  0.600000  0.737758  1
  Li  Li27  1  0.868580  0.810460  0.737564  1
  Sb  Sb28  1  0.014657  0.992651  -0.001424  1
  Sb  Sb29  1  0.014657  0.207349  0.961833  1
  Sb  Sb30  1  0.485343  0.992651  0.038167  1
  Sb  Sb31  1  0.998202  0.398438  0.007505  1
  Sb  Sb32  1  0.485343  0.207349  0.001424  1
  Sb  Sb33  1  0.989548  0.600000  0.021117  1
  Sb  Sb34  1  0.501798  0.398438  0.000303  1
  Sb  Sb35  1  0.998202  0.801562  -0.000303  1
  Sb  Sb36  1  0.510452  0.600000  0.978883  1
  Sb  Sb37  1  0.501798  0.801562  0.992495  1
