# generated using pymatgen
data_Li6Cr2O7
_symmetry_space_group_name_H-M   'P 1'
_cell_length_a   9.07221427
_cell_length_b   5.05893361
_cell_length_c   7.87024394
_cell_angle_alpha   90.00000000
_cell_angle_beta   115.45133909
_cell_angle_gamma   90.00000000
_symmetry_Int_Tables_number   1
_chemical_formula_structural   Li6Cr2O7
_chemical_formula_sum   'Li12 Cr4 O14'
_cell_volume   326.15531378
_cell_formula_units_Z   2
loop_
 _symmetry_equiv_pos_site_id
 _symmetry_equiv_pos_as_xyz
  1  'x, y, z'
loop_
 _atom_site_type_symbol
 _atom_site_label
 _atom_site_symmetry_multiplicity
 _atom_site_fract_x
 _atom_site_fract_y
 _atom_site_fract_z
 _atom_site_occupancy
  Li  Li1  1  0.117360  0.799004  0.781598  1
  Li  Li2  1  0.143879  0.190367  0.563115  1
  Li  Li3  1  0.165582  0.191110  0.095428  1
  Li  Li4  1  0.356121  0.190367  0.936885  1
  Li  Li5  1  0.382640  0.799004  0.718402  1
  Li  Li6  1  0.334418  0.191110  0.404572  1
  Li  Li7  1  0.665582  0.808889  0.595428  1
  Li  Li8  1  0.617360  0.200996  0.281598  1
  Li  Li9  1  0.643879  0.809633  0.063115  1
  Li  Li10  1  0.834418  0.808889  0.904572  1
  Li  Li11  1  0.856121  0.809633  0.436885  1
  Li  Li12  1  0.882640  0.200996  0.218402  1
  Cr  Cr13  1  0.095834  0.687370  0.315232  1
  Cr  Cr14  1  0.404166  0.687370  0.184768  1
  Cr  Cr15  1  0.595834  0.312630  0.815232  1
  Cr  Cr16  1  0.904166  0.312630  0.684768  1
  O  O17  1  0.106246  0.196658  0.825920  1
  O  O18  1  0.142879  0.785740  0.547824  1
  O  O19  1  0.106304  0.334400  0.295374  1
  O  O20  1  0.357121  0.785740  0.952176  1
  O  O21  1  0.250000  0.847994  0.250000  1
  O  O22  1  0.393754  0.196658  0.674080  1
  O  O23  1  0.393696  0.334400  0.204626  1
  O  O24  1  0.606304  0.665600  0.795374  1
  O  O25  1  0.606246  0.803342  0.325920  1
  O  O26  1  0.750000  0.152006  0.750000  1
  O  O27  1  0.642879  0.214260  0.047824  1
  O  O28  1  0.893696  0.665600  0.704626  1
  O  O29  1  0.857121  0.214260  0.452176  1
  O  O30  1  0.893754  0.803342  0.174080  1
