# generated using pymatgen
data_Li2Cr4O13
_symmetry_space_group_name_H-M   'P 1'
_cell_length_a   7.89020765
_cell_length_b   9.80376792
_cell_length_c   8.91970264
_cell_angle_alpha   90.00000000
_cell_angle_beta   90.00000000
_cell_angle_gamma   66.27126827
_symmetry_Int_Tables_number   1
_chemical_formula_structural   Li2Cr4O13
_chemical_formula_sum   'Li4 Cr8 O26'
_cell_volume   631.64292888
_cell_formula_units_Z   2
loop_
 _symmetry_equiv_pos_site_id
 _symmetry_equiv_pos_as_xyz
  1  'x, y, z'
loop_
 _atom_site_type_symbol
 _atom_site_label
 _atom_site_symmetry_multiplicity
 _atom_site_fract_x
 _atom_site_fract_y
 _atom_site_fract_z
 _atom_site_occupancy
  Li  Li1  1  0.410127  0.689865  0.390795  1
  Li  Li2  1  0.900008  0.689865  0.609205  1
  Li  Li3  1  0.099992  0.310135  0.109205  1
  Li  Li4  1  0.589873  0.310135  0.890795  1
  Cr  Cr5  1  0.837713  0.885763  0.971918  1
  Cr  Cr6  1  0.276524  0.885763  0.028082  1
  Cr  Cr7  1  0.923636  0.673002  0.261316  1
  Cr  Cr8  1  0.403362  0.673002  0.738684  1
  Cr  Cr9  1  0.596638  0.326998  0.238684  1
  Cr  Cr10  1  0.076364  0.326998  0.761316  1
  Cr  Cr11  1  0.162287  0.114237  0.471918  1
  Cr  Cr12  1  0.723476  0.114237  0.528082  1
  O  O13  1  0.743458  0.948267  0.566318  1
  O  O14  1  0.308276  0.948267  0.433682  1
  O  O15  1  0.057405  0.885191  0.000000  1
  O  O16  1  0.393463  0.828381  0.861314  1
  O  O17  1  0.778156  0.828381  0.138686  1
  O  O18  1  0.847696  0.773401  0.837142  1
  O  O19  1  0.378903  0.773401  0.162858  1
  O  O20  1  0.096132  0.705627  0.325291  1
  O  O21  1  0.198241  0.705627  0.674709  1
  O  O22  1  0.539653  0.662239  0.598388  1
  O  O23  1  0.798109  0.662239  0.401612  1
  O  O24  1  0.996562  0.520094  0.163489  1
  O  O25  1  0.483344  0.520094  0.836511  1
  O  O26  1  0.516656  0.479906  0.336511  1
  O  O27  1  0.003438  0.479906  0.663489  1
  O  O28  1  0.460347  0.337762  0.098388  1
  O  O29  1  0.201891  0.337762  0.901612  1
  O  O30  1  0.903868  0.294373  0.825291  1
  O  O31  1  0.801759  0.294373  0.174709  1
  O  O32  1  0.152304  0.226599  0.337142  1
  O  O33  1  0.621097  0.226599  0.662858  1
  O  O34  1  0.606537  0.171619  0.361314  1
  O  O35  1  0.221844  0.171619  0.638686  1
  O  O36  1  0.942595  0.114809  0.500000  1
  O  O37  1  0.691724  0.051733  0.933682  1
  O  O38  1  0.256542  0.051733  0.066318  1
