# generated using pymatgen
data_LiCr2O4
_symmetry_space_group_name_H-M   'P 1'
_cell_length_a   10.27369491
_cell_length_b   8.41940037
_cell_length_c   8.32037174
_cell_angle_alpha   90.45099321
_cell_angle_beta   144.44057727
_cell_angle_gamma   65.16581612
_symmetry_Int_Tables_number   1
_chemical_formula_structural   LiCr2O4
_chemical_formula_sum   'Li4 Cr8 O16'
_cell_volume   294.21412513
_cell_formula_units_Z   4
loop_
 _symmetry_equiv_pos_site_id
 _symmetry_equiv_pos_as_xyz
  1  'x, y, z'
loop_
 _atom_site_type_symbol
 _atom_site_label
 _atom_site_symmetry_multiplicity
 _atom_site_fract_x
 _atom_site_fract_y
 _atom_site_fract_z
 _atom_site_occupancy
  Li  Li1  1  0.002140  0.998860  0.002729  1
  Li  Li2  1  0.501516  0.997515  0.750570  1
  Li  Li3  1  0.503045  0.499646  0.249762  1
  Li  Li4  1  0.994050  0.503417  0.494378  1
  Cr  Cr5  1  0.245327  0.002136  0.870676  1
  Cr  Cr6  1  0.251459  0.249647  0.125375  1
  Cr  Cr7  1  0.247599  0.752637  0.622583  1
  Cr  Cr8  1  0.258324  0.496657  0.384365  1
  Cr  Cr9  1  0.752541  0.999334  0.377419  1
  Cr  Cr10  1  0.751622  0.751207  0.625489  1
  Cr  Cr11  1  0.747946  0.249735  0.122738  1
  Cr  Cr12  1  0.748552  0.502889  0.872572  1
  O  O13  1  0.225848  0.996870  0.610566  1
  O  O14  1  0.231353  0.771021  0.837753  1
  O  O15  1  0.228646  0.497020  0.118316  1
  O  O16  1  0.277843  0.004938  0.147517  1
  O  O17  1  0.227671  0.275242  0.334167  1
  O  O18  1  0.273436  0.229482  0.918937  1
  O  O19  1  0.259264  0.507934  0.614689  1
  O  O20  1  0.269524  0.726891  0.409763  1
  O  O21  1  0.725620  0.771484  0.372258  1
  O  O22  1  0.721939  0.996400  0.590915  1
  O  O23  1  0.709275  0.283999  0.837980  1
  O  O24  1  0.773482  0.224510  0.386383  1
  O  O25  1  0.707407  0.508585  0.071772  1
  O  O26  1  0.787276  0.991965  0.170095  1
  O  O27  1  0.789938  0.721745  0.897559  1
  O  O28  1  0.780678  0.505864  0.662774  1
