# generated using pymatgen
data_KAs
_symmetry_space_group_name_H-M   'P 1'
_cell_length_a   6.56130699
_cell_length_b   6.80348931
_cell_length_c   11.76160068
_cell_angle_alpha   90.00000000
_cell_angle_beta   90.00000000
_cell_angle_gamma   90.00000000
_symmetry_Int_Tables_number   1
_chemical_formula_structural   KAs
_chemical_formula_sum   'K8 As8'
_cell_volume   525.03528993
_cell_formula_units_Z   8
loop_
 _symmetry_equiv_pos_site_id
 _symmetry_equiv_pos_as_xyz
  1  'x, y, z'
loop_
 _atom_site_type_symbol
 _atom_site_label
 _atom_site_symmetry_multiplicity
 _atom_site_fract_x
 _atom_site_fract_y
 _atom_site_fract_z
 _atom_site_occupancy
  K  K1  1  0.083712  0.601951  0.961007  1
  K  K2  1  0.583712  0.398049  0.538993  1
  K  K3  1  0.416288  0.101951  0.038993  1
  K  K4  1  0.916288  0.898049  0.461007  1
  K  K5  1  0.349625  0.856331  0.669096  1
  K  K6  1  0.849625  0.143669  0.830904  1
  K  K7  1  0.150375  0.356331  0.330904  1
  K  K8  1  0.650375  0.643669  0.169096  1
  As  As9  1  0.842859  0.685150  0.716898  1
  As  As10  1  0.342859  0.314850  0.783102  1
  As  As11  1  0.657141  0.185150  0.283102  1
  As  As12  1  0.157141  0.814850  0.216898  1
  As  As13  1  0.582156  0.569479  0.861644  1
  As  As14  1  0.082156  0.430521  0.638356  1
  As  As15  1  0.917844  0.069479  0.138356  1
  As  As16  1  0.417844  0.930521  0.361644  1
