# generated using pymatgen
data_Li8CrO6
_symmetry_space_group_name_H-M   'P 1'
_cell_length_a   5.57254897
_cell_length_b   5.57251604
_cell_length_c   10.86769244
_cell_angle_alpha   89.99991511
_cell_angle_beta   90.00012335
_cell_angle_gamma   120.00033304
_symmetry_Int_Tables_number   1
_chemical_formula_structural   Li8CrO6
_chemical_formula_sum   'Li16 Cr2 O12'
_cell_volume   292.26158449
_cell_formula_units_Z   2
loop_
 _symmetry_equiv_pos_site_id
 _symmetry_equiv_pos_as_xyz
  1  'x, y, z'
loop_
 _atom_site_type_symbol
 _atom_site_label
 _atom_site_symmetry_multiplicity
 _atom_site_fract_x
 _atom_site_fract_y
 _atom_site_fract_z
 _atom_site_occupancy
  Li  Li1  1  0.999983  0.685464  0.767075  1
  Li  Li2  1  0.999998  0.609713  0.128651  1
  Li  Li3  1  0.999982  0.390273  0.628648  1
  Li  Li4  1  -0.000000  0.314515  0.267069  1
  Li  Li5  1  0.333333  0.666679  0.407382  1
  Li  Li6  1  0.333314  0.666649  0.907398  1
  Li  Li7  1  0.314499  0.314496  0.767072  1
  Li  Li8  1  0.390287  0.390303  0.128649  1
  Li  Li9  1  0.609705  0.609705  0.628648  1
  Li  Li10  1  0.314508  0.000022  0.267066  1
  Li  Li11  1  0.685495  0.685515  0.267066  1
  Li  Li12  1  0.390280  0.999983  0.628649  1
  Li  Li13  1  0.666649  0.333315  0.907398  1
  Li  Li14  1  0.666676  0.333352  0.407381  1
  Li  Li15  1  0.609706  0.000016  0.128649  1
  Li  Li16  1  0.685466  0.999980  0.767074  1
  Cr  Cr17  1  0.999989  0.000028  0.994581  1
  Cr  Cr18  1  0.000005  0.000006  0.494568  1
  O  O19  1  0.999982  0.690404  0.949859  1
  O  O20  1  0.000004  0.309576  0.449851  1
  O  O21  1  0.333333  0.666685  0.217160  1
  O  O22  1  0.000001  0.000025  0.165236  1
  O  O23  1  0.999980  0.999972  0.665238  1
  O  O24  1  0.333314  0.666648  0.717162  1
  O  O25  1  0.309577  0.309579  0.949857  1
  O  O26  1  0.309598  0.000017  0.449847  1
  O  O27  1  0.690417  0.690426  0.449847  1
  O  O28  1  0.666648  0.333310  0.717163  1
  O  O29  1  0.666667  0.333355  0.217159  1
  O  O30  1  0.690403  0.999988  0.949859  1
