# generated using pymatgen
data_LiMg2
_symmetry_space_group_name_H-M   'P 1'
_cell_length_a   5.50874466
_cell_length_b   5.50874413
_cell_length_c   14.88499089
_cell_angle_alpha   90.00000000
_cell_angle_beta   90.00000000
_cell_angle_gamma   120.00000316
_symmetry_Int_Tables_number   1
_chemical_formula_structural   LiMg2
_chemical_formula_sum   'Li6 Mg12'
_cell_volume   391.18701868
_cell_formula_units_Z   6
loop_
 _symmetry_equiv_pos_site_id
 _symmetry_equiv_pos_as_xyz
  1  'x, y, z'
loop_
 _atom_site_type_symbol
 _atom_site_label
 _atom_site_symmetry_multiplicity
 _atom_site_fract_x
 _atom_site_fract_y
 _atom_site_fract_z
 _atom_site_occupancy
  Li  Li1  1  0.666667  0.333333  0.499634  1
  Li  Li2  1  0.333333  0.666667  0.500366  1
  Li  Li3  1  0.333333  0.666667  0.832967  1
  Li  Li4  1  -0.000000  -0.000000  0.833699  1
  Li  Li5  1  -0.000000  -0.000000  0.166301  1
  Li  Li6  1  0.666667  0.333333  0.167033  1
  Mg  Mg7  1  0.666667  0.664825  0.333333  1
  Mg  Mg8  1  0.998158  0.333333  0.333333  1
  Mg  Mg9  1  -0.000000  -0.000000  0.500000  1
  Mg  Mg10  1  0.335175  0.001842  0.333333  1
  Mg  Mg11  1  0.333333  0.998158  0.666667  1
  Mg  Mg12  1  0.664825  0.666667  0.666667  1
  Mg  Mg13  1  0.666667  0.333333  0.833333  1
  Mg  Mg14  1  0.001842  0.335175  0.666667  1
  Mg  Mg15  1  1.000000  0.331491  -0.000000  1
  Mg  Mg16  1  0.331491  -0.000000  -0.000000  1
  Mg  Mg17  1  0.333333  0.666667  0.166667  1
  Mg  Mg18  1  0.668509  0.668509  -0.000000  1
