# generated using pymatgen
data_LiP3
_symmetry_space_group_name_H-M   'P 1'
_cell_length_a   4.23433831
_cell_length_b   4.23433831
_cell_length_c   8.03860464
_cell_angle_alpha   90.00000000
_cell_angle_beta   90.00000000
_cell_angle_gamma   119.99999922
_symmetry_Int_Tables_number   1
_chemical_formula_structural   LiP3
_chemical_formula_sum   'Li2 P6'
_cell_volume   124.81949240
_cell_formula_units_Z   2
loop_
 _symmetry_equiv_pos_site_id
 _symmetry_equiv_pos_as_xyz
  1  'x, y, z'
loop_
 _atom_site_type_symbol
 _atom_site_label
 _atom_site_symmetry_multiplicity
 _atom_site_fract_x
 _atom_site_fract_y
 _atom_site_fract_z
 _atom_site_occupancy
  Li  Li1  1  0.666667  0.333333  0.750000  1
  Li  Li2  1  0.333333  0.666667  0.250000  1
  P  P3  1  0.666667  0.333333  0.393105  1
  P  P4  1  0.333333  0.666667  0.606895  1
  P  P5  1  0.333333  0.666667  0.893105  1
  P  P6  1  0.666667  0.333333  0.106895  1
  P  P7  1  0.000000  0.000000  0.750000  1
  P  P8  1  0.000000  0.000000  0.250000  1
