# generated using pymatgen
data_LiCr2O4
_symmetry_space_group_name_H-M   'P 1'
_cell_length_a   5.08743607
_cell_length_b   5.79209241
_cell_length_c   5.79801056
_cell_angle_alpha   119.11060478
_cell_angle_beta   90.29003257
_cell_angle_gamma   89.69588591
_symmetry_Int_Tables_number   1
_chemical_formula_structural   LiCr2O4
_chemical_formula_sum   'Li2 Cr4 O8'
_cell_volume   149.26537154
_cell_formula_units_Z   2
loop_
 _symmetry_equiv_pos_site_id
 _symmetry_equiv_pos_as_xyz
  1  'x, y, z'
loop_
 _atom_site_type_symbol
 _atom_site_label
 _atom_site_symmetry_multiplicity
 _atom_site_fract_x
 _atom_site_fract_y
 _atom_site_fract_z
 _atom_site_occupancy
  Li  Li1  1  0.500424  0.485144  0.984453  1
  Li  Li2  1  0.999532  0.764893  0.265490  1
  Cr  Cr3  1  0.001238  0.015600  0.983787  1
  Cr  Cr4  1  0.498786  0.234351  0.266159  1
  Cr  Cr5  1  0.999027  0.484476  0.516255  1
  Cr  Cr6  1  0.500973  0.765463  0.733738  1
  O  O7  1  0.821383  0.360987  0.162450  1
  O  O8  1  0.157928  0.134714  0.344098  1
  O  O9  1  0.678683  0.888957  0.087532  1
  O  O10  1  0.657564  0.405025  0.615312  1
  O  O11  1  0.321560  0.588031  0.388938  1
  O  O12  1  0.342003  0.115324  0.905916  1
  O  O13  1  0.842551  0.844914  0.634631  1
  O  O14  1  0.178359  0.661911  0.861026  1
