# generated using pymatgen
data_Li3CrO4
_symmetry_space_group_name_H-M   'P 1'
_cell_length_a   7.78117680
_cell_length_b   5.35433998
_cell_length_c   5.21980683
_cell_angle_alpha   65.76325759
_cell_angle_beta   110.16952259
_cell_angle_gamma   98.19627860
_symmetry_Int_Tables_number   1
_chemical_formula_structural   Li3CrO4
_chemical_formula_sum   'Li6 Cr2 O8'
_cell_volume   186.14359042
_cell_formula_units_Z   2
loop_
 _symmetry_equiv_pos_site_id
 _symmetry_equiv_pos_as_xyz
  1  'x, y, z'
loop_
 _atom_site_type_symbol
 _atom_site_label
 _atom_site_symmetry_multiplicity
 _atom_site_fract_x
 _atom_site_fract_y
 _atom_site_fract_z
 _atom_site_occupancy
  Li  Li1  1  0.201014  0.288867  0.417152  1
  Li  Li2  1  0.437880  0.741502  0.478108  1
  Li  Li3  1  0.548806  0.266997  0.513467  1
  Li  Li4  1  0.581921  0.751641  0.073619  1
  Li  Li5  1  0.816331  0.700328  0.605932  1
  Li  Li6  1  0.998999  0.217276  0.789347  1
  Cr  Cr7  1  0.230738  0.710099  0.826249  1
  Cr  Cr8  1  0.761327  0.285058  0.161527  1
  O  O9  1  0.043515  0.870341  0.785538  1
  O  O10  1  0.192877  0.477122  0.673211  1
  O  O11  1  0.380852  0.958073  0.666204  1
  O  O12  1  0.365093  0.554954  0.202332  1
  O  O13  1  0.631606  0.492008  0.809938  1
  O  O14  1  0.639590  0.991145  0.295076  1
  O  O15  1  0.782888  0.445082  0.401647  1
  O  O16  1  0.965554  0.236904  0.134560  1
