# generated using pymatgen
data_LiMg
_symmetry_space_group_name_H-M   'P 1'
_cell_length_a   3.32614928
_cell_length_b   5.77469064
_cell_length_c   7.01947320
_cell_angle_alpha   72.42430734
_cell_angle_beta   90.00000000
_cell_angle_gamma   106.73788105
_symmetry_Int_Tables_number   1
_chemical_formula_structural   LiMg
_chemical_formula_sum   'Li3 Mg3'
_cell_volume   122.52720457
_cell_formula_units_Z   3
loop_
 _symmetry_equiv_pos_site_id
 _symmetry_equiv_pos_as_xyz
  1  'x, y, z'
loop_
 _atom_site_type_symbol
 _atom_site_label
 _atom_site_symmetry_multiplicity
 _atom_site_fract_x
 _atom_site_fract_y
 _atom_site_fract_z
 _atom_site_occupancy
  Li  Li1  1  0.031719  0.063437  0.947514  1
  Li  Li2  1  0.368756  0.737510  0.268379  1
  Li  Li3  1  0.017740  0.035481  0.442934  1
  Mg  Mg4  1  0.689712  0.379422  0.126623  1
  Mg  Mg5  1  0.690167  0.380330  0.601001  1
  Mg  Mg6  1  0.368576  0.737152  0.780216  1
