# generated using pymatgen
data_K5Sb4
_symmetry_space_group_name_H-M   'P 1'
_cell_length_a   6.55516446
_cell_length_b   10.71935056
_cell_length_c   6.88699897
_cell_angle_alpha   92.57039744
_cell_angle_beta   96.19120702
_cell_angle_gamma   52.25688035
_symmetry_Int_Tables_number   1
_chemical_formula_structural   K5Sb4
_chemical_formula_sum   'K5 Sb4'
_cell_volume   380.30369436
_cell_formula_units_Z   1
loop_
 _symmetry_equiv_pos_site_id
 _symmetry_equiv_pos_as_xyz
  1  'x, y, z'
loop_
 _atom_site_type_symbol
 _atom_site_label
 _atom_site_symmetry_multiplicity
 _atom_site_fract_x
 _atom_site_fract_y
 _atom_site_fract_z
 _atom_site_occupancy
  K  K1  1  0.712662  0.022742  0.292302  1
  K  K2  1  0.068282  0.640788  -0.022229  1
  K  K3  1  0.502552  0.496950  0.499024  1
  K  K4  1  0.938366  0.348891  0.020750  1
  K  K5  1  0.292210  0.970158  0.703584  1
  Sb  Sb6  1  0.850601  0.666151  0.475574  1
  Sb  Sb7  1  0.565661  0.213902  0.821194  1
  Sb  Sb8  1  0.438063  0.779818  0.176229  1
  Sb  Sb9  1  0.153603  0.328599  0.521572  1
