# generated using pymatgen
data_Li5BO4
_symmetry_space_group_name_H-M   'P 1'
_cell_length_a   6.09052082
_cell_length_b   5.97488364
_cell_length_c   4.57480765
_cell_angle_alpha   90.00000000
_cell_angle_beta   90.00000000
_cell_angle_gamma   90.00000000
_symmetry_Int_Tables_number   1
_chemical_formula_structural   Li5BO4
_chemical_formula_sum   'Li10 B2 O8'
_cell_volume   166.47795127
_cell_formula_units_Z   2
loop_
 _symmetry_equiv_pos_site_id
 _symmetry_equiv_pos_as_xyz
  1  'x, y, z'
loop_
 _atom_site_type_symbol
 _atom_site_label
 _atom_site_symmetry_multiplicity
 _atom_site_fract_x
 _atom_site_fract_y
 _atom_site_fract_z
 _atom_site_occupancy
  Li  Li1  1  0.051986  0.010120  0.741898  1
  Li  Li2  1  0.051986  0.489880  0.741898  1
  Li  Li3  1  0.250000  0.750000  0.177766  1
  Li  Li4  1  0.448014  0.010120  0.741898  1
  Li  Li5  1  0.448014  0.489880  0.741898  1
  Li  Li6  1  0.551986  0.989880  0.258102  1
  Li  Li7  1  0.551986  0.510120  0.258102  1
  Li  Li8  1  0.750000  0.250000  0.822234  1
  Li  Li9  1  0.948014  0.989880  0.258102  1
  Li  Li10  1  0.948014  0.510120  0.258102  1
  B  B11  1  0.250000  0.250000  0.220710  1
  B  B12  1  0.750000  0.750000  0.779290  1
  O  O13  1  0.041707  0.250000  0.033207  1
  O  O14  1  0.250000  0.037275  0.404838  1
  O  O15  1  0.250000  0.462725  0.404838  1
  O  O16  1  0.458293  0.250000  0.033207  1
  O  O17  1  0.541707  0.750000  0.966793  1
  O  O18  1  0.750000  0.962725  0.595162  1
  O  O19  1  0.750000  0.537275  0.595162  1
  O  O20  1  0.958293  0.750000  0.966793  1
