# generated using pymatgen
data_Li2Mg
_symmetry_space_group_name_H-M   'P 1'
_cell_length_a   5.31903505
_cell_length_b   5.31893266
_cell_length_c   5.90396882
_cell_angle_alpha   116.77612381
_cell_angle_beta   63.22802377
_cell_angle_gamma   119.99979213
_symmetry_Int_Tables_number   1
_chemical_formula_structural   Li2Mg
_chemical_formula_sum   'Li4 Mg2'
_cell_volume   123.54498611
_cell_formula_units_Z   2
loop_
 _symmetry_equiv_pos_site_id
 _symmetry_equiv_pos_as_xyz
  1  'x, y, z'
loop_
 _atom_site_type_symbol
 _atom_site_label
 _atom_site_symmetry_multiplicity
 _atom_site_fract_x
 _atom_site_fract_y
 _atom_site_fract_z
 _atom_site_occupancy
  Li  Li1  1  0.000016  0.999980  0.999993  1
  Li  Li2  1  0.666649  0.333343  0.000002  1
  Li  Li3  1  0.333379  0.666706  0.999988  1
  Li  Li4  1  0.500011  0.833338  0.499992  1
  Mg  Mg5  1  0.166695  0.166570  0.499836  1
  Mg  Mg6  1  0.833248  0.500063  0.500189  1
