# generated using pymatgen
data_LiCr3O8
_symmetry_space_group_name_H-M   'P 1'
_cell_length_a   10.06366286
_cell_length_b   5.55628381
_cell_length_c   6.20453358
_cell_angle_alpha   90.00000000
_cell_angle_beta   90.00000000
_cell_angle_gamma   56.48787094
_symmetry_Int_Tables_number   1
_chemical_formula_structural   LiCr3O8
_chemical_formula_sum   'Li2 Cr6 O16'
_cell_volume   289.26465027
_cell_formula_units_Z   2
loop_
 _symmetry_equiv_pos_site_id
 _symmetry_equiv_pos_as_xyz
  1  'x, y, z'
loop_
 _atom_site_type_symbol
 _atom_site_label
 _atom_site_symmetry_multiplicity
 _atom_site_fract_x
 _atom_site_fract_y
 _atom_site_fract_z
 _atom_site_occupancy
  Li  Li1  1  0.500000  0.000000  0.000000  1
  Li  Li2  1  0.000000  0.000000  0.500000  1
  Cr  Cr3  1  0.000000  0.000000  0.000000  1
  Cr  Cr4  1  0.143810  0.356190  0.763236  1
  Cr  Cr5  1  0.500000  0.000000  0.500000  1
  Cr  Cr6  1  0.356190  0.643810  0.263236  1
  Cr  Cr7  1  0.643810  0.356190  0.736764  1
  Cr  Cr8  1  0.856190  0.643810  0.236764  1
  O  O9  1  0.027343  0.220159  0.764648  1
  O  O10  1  0.027343  0.725156  0.764648  1
  O  O11  1  0.263367  0.236633  0.547774  1
  O  O12  1  0.250621  0.249379  0.977262  1
  O  O13  1  0.236633  0.763367  0.047774  1
  O  O14  1  0.249379  0.750621  0.477262  1
  O  O15  1  0.472657  0.274844  0.264648  1
  O  O16  1  0.527343  0.220159  0.735352  1
  O  O17  1  0.472657  0.779841  0.264648  1
  O  O18  1  0.527343  0.725156  0.735352  1
  O  O19  1  0.750621  0.249379  0.522738  1
  O  O20  1  0.763367  0.236633  0.952226  1
  O  O21  1  0.749379  0.750621  0.022738  1
  O  O22  1  0.736633  0.763367  0.452226  1
  O  O23  1  0.972657  0.274844  0.235352  1
  O  O24  1  0.972657  0.779841  0.235352  1
