# generated using pymatgen
data_Li2CrO3
_symmetry_space_group_name_H-M   'P 1'
_cell_length_a   15.22718915
_cell_length_b   9.78899406
_cell_length_c   9.78899401
_cell_angle_alpha   17.10076264
_cell_angle_beta   16.62051376
_cell_angle_gamma   16.62051708
_symmetry_Int_Tables_number   1
_chemical_formula_structural   Li2CrO3
_chemical_formula_sum   'Li4 Cr2 O6'
_cell_volume   106.02147673
_cell_formula_units_Z   2
loop_
 _symmetry_equiv_pos_site_id
 _symmetry_equiv_pos_as_xyz
  1  'x, y, z'
loop_
 _atom_site_type_symbol
 _atom_site_label
 _atom_site_symmetry_multiplicity
 _atom_site_fract_x
 _atom_site_fract_y
 _atom_site_fract_z
 _atom_site_occupancy
  Li  Li1  1  0.666667  0.000000  0.000000  1
  Li  Li2  1  0.166667  0.500000  0.500000  1
  Li  Li3  1  0.511695  0.494477  0.494477  1
  Li  Li4  1  0.821638  0.505523  0.505523  1
  Cr  Cr5  1  0.028038  0.980883  0.980883  1
  Cr  Cr6  1  0.305296  0.019117  0.019117  1
  O  O7  1  0.215470  0.281805  0.281805  1
  O  O8  1  0.573644  0.265759  0.265759  1
  O  O9  1  0.117863  0.718195  0.718195  1
  O  O10  1  0.945862  0.232202  0.232202  1
  O  O11  1  0.387471  0.767798  0.767798  1
  O  O12  1  0.759689  0.734241  0.734241  1
