# generated using pymatgen
data_Li3CrO3
_symmetry_space_group_name_H-M   'P 1'
_cell_length_a   9.44929203
_cell_length_b   5.45582497
_cell_length_c   9.81178802
_cell_angle_alpha   90.00104052
_cell_angle_beta   90.00211626
_cell_angle_gamma   149.99717137
_symmetry_Int_Tables_number   1
_chemical_formula_structural   Li3CrO3
_chemical_formula_sum   'Li12 Cr4 O12'
_cell_volume   252.93853142
_cell_formula_units_Z   4
loop_
 _symmetry_equiv_pos_site_id
 _symmetry_equiv_pos_as_xyz
  1  'x, y, z'
loop_
 _atom_site_type_symbol
 _atom_site_label
 _atom_site_symmetry_multiplicity
 _atom_site_fract_x
 _atom_site_fract_y
 _atom_site_fract_z
 _atom_site_occupancy
  Li  Li1  1  0.372578  0.425316  0.422223  1
  Li  Li2  1  0.314835  0.253484  0.922022  1
  Li  Li3  1  0.050459  0.421031  0.922605  1
  Li  Li4  1  0.674151  0.725654  0.078011  1
  Li  Li5  1  0.940520  0.256221  0.422512  1
  Li  Li6  1  0.618247  0.557696  0.578324  1
  Li  Li7  1  0.316259  0.688837  0.577913  1
  Li  Li8  1  0.676066  0.296613  0.422230  1
  Li  Li9  1  0.619031  0.294870  0.922009  1
  Li  Li10  1  0.371949  0.688050  0.077846  1
  Li  Li11  1  0.938165  0.556291  0.077948  1
  Li  Li12  1  0.051212  0.726685  0.577836  1
  Cr  Cr13  1  0.661942  0.991096  0.749993  1
  Cr  Cr14  1  0.328710  0.991203  0.249920  1
  Cr  Cr15  1  0.995482  0.991246  0.249724  1
  Cr  Cr16  1  0.995440  0.991315  0.749880  1
  O  O17  1  0.333452  0.373090  0.631832  1
  O  O18  1  0.289162  0.240590  0.131542  1
  O  O19  1  0.700452  0.739816  0.867834  1
  O  O20  1  0.657570  0.610029  0.367867  1
  O  O21  1  0.951769  0.242004  0.631778  1
  O  O22  1  0.038804  0.372364  0.131758  1
  O  O23  1  0.656888  0.358182  0.131672  1
  O  O24  1  0.290787  0.625224  0.367728  1
  O  O25  1  0.700992  0.358779  0.631803  1
  O  O26  1  0.333360  0.623312  0.868099  1
  O  O27  1  0.951102  0.608096  0.868024  1
  O  O28  1  0.039682  0.741252  0.368134  1
