# generated using pymatgen
data_LiTb3
_symmetry_space_group_name_H-M   'P 1'
_cell_length_a   7.02540145
_cell_length_b   7.02524301
_cell_length_c   5.54800145
_cell_angle_alpha   90.00329200
_cell_angle_beta   89.99751652
_cell_angle_gamma   119.99218088
_symmetry_Int_Tables_number   1
_chemical_formula_structural   LiTb3
_chemical_formula_sum   'Li2 Tb6'
_cell_volume   237.15588570
_cell_formula_units_Z   2
loop_
 _symmetry_equiv_pos_site_id
 _symmetry_equiv_pos_as_xyz
  1  'x, y, z'
loop_
 _atom_site_type_symbol
 _atom_site_label
 _atom_site_symmetry_multiplicity
 _atom_site_fract_x
 _atom_site_fract_y
 _atom_site_fract_z
 _atom_site_occupancy
  Tb  Tb1  1  0.831013  0.168972  0.749983  1
  Tb  Tb2  1  0.337913  0.168965  0.750008  1
  Tb  Tb3  1  0.831015  0.662065  0.750007  1
  Tb  Tb4  1  0.169195  0.830821  0.250004  1
  Tb  Tb5  1  0.661661  0.830819  0.249997  1
  Tb  Tb6  1  0.169196  0.338356  0.249997  1
  Li  Li7  1  0.666666  0.333333  0.250001  1
  Li  Li8  1  0.333340  0.666668  0.749999  1
