# generated using pymatgen
data_Li27As10
_symmetry_space_group_name_H-M   'P 1'
_cell_length_a   8.66357197
_cell_length_b   21.53235163
_cell_length_c   7.44117033
_cell_angle_alpha   30.19780937
_cell_angle_beta   54.44716201
_cell_angle_gamma   59.80952783
_symmetry_Int_Tables_number   1
_chemical_formula_structural   Li27As10
_chemical_formula_sum   'Li27 As10'
_cell_volume   568.04966561
_cell_formula_units_Z   1
loop_
 _symmetry_equiv_pos_site_id
 _symmetry_equiv_pos_as_xyz
  1  'x, y, z'
loop_
 _atom_site_type_symbol
 _atom_site_label
 _atom_site_symmetry_multiplicity
 _atom_site_fract_x
 _atom_site_fract_y
 _atom_site_fract_z
 _atom_site_occupancy
  Li  Li1  1  0.096334  0.001842  0.262902  1
  Li  Li2  1  0.246684  -0.002035  0.508197  1
  Li  Li3  1  0.102533  0.199874  0.264854  1
  Li  Li4  1  0.245477  0.202428  0.500649  1
  Li  Li5  1  0.636524  0.012494  0.217101  1
  Li  Li6  1  0.401250  0.003482  0.723909  1
  Li  Li7  1  0.132485  0.418310  0.190410  1
  Li  Li8  1  0.634258  0.191299  0.274183  1
  Li  Li9  1  0.133277  0.600438  0.262010  1
  Li  Li10  1  0.397617  0.199527  0.737585  1
  Li  Li11  1  0.253661  0.396532  0.506392  1
  Li  Li12  1  0.134742  0.783037  0.277284  1
  Li  Li13  1  0.860469  0.013776  0.715316  1
  Li  Li14  1  0.632954  0.387281  0.263160  1
  Li  Li15  1  0.364017  0.415714  0.727888  1
  Li  Li16  1  0.599199  0.601402  0.258365  1
  Li  Li17  1  0.751688  0.399895  0.499030  1
  Li  Li18  1  0.859241  0.188551  0.779907  1
  Li  Li19  1  0.367765  0.600692  0.732283  1
  Li  Li20  1  0.252138  0.806532  0.479617  1
  Li  Li21  1  0.631481  0.813799  0.199812  1
  Li  Li22  1  0.866279  0.385690  0.803709  1
  Li  Li23  1  0.364580  0.786018  0.799117  1
  Li  Li24  1  0.751060  0.602275  0.490292  1
  Li  Li25  1  0.751570  0.802608  0.490291  1
  Li  Li26  1  0.896401  0.600774  0.734546  1
  Li  Li27  1  0.867756  0.815694  0.727174  1
  As  As28  1  0.016710  0.991967  -0.004421  1
  As  As29  1  0.014828  0.210035  0.952143  1
  As  As30  1  0.996645  0.398067  0.011307  1
  As  As31  1  0.483139  0.210331  0.996651  1
  As  As32  1  0.986298  0.600833  0.024537  1
  As  As33  1  0.499644  0.398895  0.999232  1
  As  As34  1  0.996813  0.802936  0.999094  1
  As  As35  1  0.510212  0.600247  0.973114  1
  As  As36  1  0.501843  0.803575  0.985372  1
  As  As37  1  0.481818  0.992341  0.041519  1
