# generated using pymatgen
data_Li3CrO4
_symmetry_space_group_name_H-M   'P 1'
_cell_length_a   6.40288410
_cell_length_b   5.46588948
_cell_length_c   5.00897424
_cell_angle_alpha   90.00000000
_cell_angle_beta   90.00000000
_cell_angle_gamma   90.00000000
_symmetry_Int_Tables_number   1
_chemical_formula_structural   Li3CrO4
_chemical_formula_sum   'Li6 Cr2 O8'
_cell_volume   175.30135980
_cell_formula_units_Z   2
loop_
 _symmetry_equiv_pos_site_id
 _symmetry_equiv_pos_as_xyz
  1  'x, y, z'
loop_
 _atom_site_type_symbol
 _atom_site_label
 _atom_site_symmetry_multiplicity
 _atom_site_fract_x
 _atom_site_fract_y
 _atom_site_fract_z
 _atom_site_occupancy
  Li  Li1  1  0.000000  0.163737  0.489706  1
  Li  Li2  1  0.247426  0.330621  0.990653  1
  Li  Li3  1  0.252574  0.669379  0.490653  1
  Li  Li4  1  0.500000  0.836263  0.989706  1
  Li  Li5  1  0.747426  0.669379  0.490653  1
  Li  Li6  1  0.752574  0.330621  0.990653  1
  Cr  Cr7  1  0.000000  0.827799  0.997984  1
  Cr  Cr8  1  0.500000  0.172201  0.497984  1
  O  O9  1  0.000000  0.127831  0.887130  1
  O  O10  1  0.000000  0.821611  0.343418  1
  O  O11  1  0.225863  0.683066  0.892595  1
  O  O12  1  0.274137  0.316934  0.392595  1
  O  O13  1  0.500000  0.178389  0.843418  1
  O  O14  1  0.500000  0.872169  0.387130  1
  O  O15  1  0.725863  0.316934  0.392595  1
  O  O16  1  0.774137  0.683066  0.892595  1
