# generated using pymatgen
data_Li5CrO5
_symmetry_space_group_name_H-M   'P 1'
_cell_length_a   4.06727956
_cell_length_b   5.13361649
_cell_length_c   5.66210644
_cell_angle_alpha   73.09288187
_cell_angle_beta   90.04262812
_cell_angle_gamma   66.69230027
_symmetry_Int_Tables_number   1
_chemical_formula_structural   Li5CrO5
_chemical_formula_sum   'Li5 Cr1 O5'
_cell_volume   102.97689254
_cell_formula_units_Z   1
loop_
 _symmetry_equiv_pos_site_id
 _symmetry_equiv_pos_as_xyz
  1  'x, y, z'
loop_
 _atom_site_type_symbol
 _atom_site_label
 _atom_site_symmetry_multiplicity
 _atom_site_fract_x
 _atom_site_fract_y
 _atom_site_fract_z
 _atom_site_occupancy
  Li  Li1  1  0.682974  0.630680  0.875699  1
  Li  Li2  1  0.705092  0.595633  0.351494  1
  Li  Li3  1  0.288104  0.427164  0.676245  1
  Li  Li4  1  0.302645  0.393281  0.151613  1
  Li  Li5  1  0.006431  0.011787  0.513741  1
  Cr  Cr6  1  0.923379  0.010812  0.014650  1
  O  O7  1  0.141582  0.730142  0.846895  1
  O  O8  1  0.511567  0.009417  0.015944  1
  O  O9  1  0.158137  0.707105  0.323177  1
  O  O10  1  0.853312  0.314270  0.706121  1
  O  O11  1  0.861127  0.292793  0.180872  1
