# generated using pymatgen
data_Li26(B24O)3
_symmetry_space_group_name_H-M   'P 1'
_cell_length_a   8.21988851
_cell_length_b   8.21843258
_cell_length_c   16.47349103
_cell_angle_alpha   90.04991219
_cell_angle_beta   89.95404198
_cell_angle_gamma   119.99834990
_symmetry_Int_Tables_number   1
_chemical_formula_structural   Li26(B24O)3
_chemical_formula_sum   'Li26 B72 O3'
_cell_volume   963.78068094
_cell_formula_units_Z   1
loop_
 _symmetry_equiv_pos_site_id
 _symmetry_equiv_pos_as_xyz
  1  'x, y, z'
loop_
 _atom_site_type_symbol
 _atom_site_label
 _atom_site_symmetry_multiplicity
 _atom_site_fract_x
 _atom_site_fract_y
 _atom_site_fract_z
 _atom_site_occupancy
  Li  Li1  1  0.204529  0.965096  0.256203  1
  Li  Li2  1  0.288748  0.649003  0.999868  1
  Li  Li3  1  0.315506  0.657942  0.248703  1
  Li  Li4  1  0.326310  0.673204  0.499040  1
  Li  Li5  1  0.327353  0.673942  0.751886  1
  Li  Li6  1  0.197735  0.237972  0.230128  1
  Li  Li7  1  0.262917  0.111846  0.500875  1
  Li  Li8  1  0.263870  0.110286  0.751649  1
  Li  Li9  1  0.624126  0.811239  0.996995  1
  Li  Li10  1  0.749307  0.764596  0.497986  1
  Li  Li11  1  0.707272  0.854349  0.250128  1
  Li  Li12  1  0.749200  0.766316  0.749919  1
  Li  Li13  1  0.792926  0.064706  0.501887  1
  Li  Li14  1  0.793924  0.066733  0.746467  1
  Li  Li15  1  0.602119  0.302866  0.000026  1
  Li  Li16  1  0.646401  0.324246  0.247472  1
  Li  Li17  1  0.658900  0.335637  0.498304  1
  Li  Li18  1  0.894340  0.688328  0.002145  1
  Li  Li19  1  0.658844  0.335768  0.752620  1
  Li  Li20  1  0.044080  0.796784  0.496862  1
  Li  Li21  1  0.896856  0.725166  0.243065  1
  Li  Li22  1  0.043326  0.795815  0.754569  1
  Li  Li23  1  0.884398  0.204399  0.998439  1
  Li  Li24  1  0.895737  0.172728  0.256808  1
  Li  Li25  1  0.106907  0.275645  0.496889  1
  Li  Li26  1  0.108819  0.276296  0.753357  1
  B  B27  1  0.989939  0.494514  0.200413  1
  B  B28  1  0.989664  0.494527  0.450331  1
  B  B29  1  0.991191  0.495147  0.051486  1
  B  B30  1  0.117270  0.669394  0.126472  1
  B  B31  1  0.110433  0.666585  0.374825  1
  B  B32  1  0.104106  0.663903  0.625608  1
  B  B33  1  0.110758  0.666594  0.875025  1
  B  B34  1  0.322812  0.875132  0.126175  1
  B  B35  1  0.316352  0.871869  0.375367  1
  B  B36  1  0.307646  0.870499  0.625657  1
  B  B37  1  0.315091  0.873485  0.874904  1
  B  B38  1  0.118011  0.448486  0.126233  1
  B  B39  1  0.110109  0.445775  0.374006  1
  B  B40  1  0.103395  0.441729  0.625399  1
  B  B41  1  0.110810  0.446129  0.875887  1
  B  B42  1  0.482974  0.997240  0.450700  1
  B  B43  1  0.480664  0.996148  0.699747  1
  B  B44  1  0.491848  0.995029  0.050771  1
  B  B45  1  0.478556  0.995938  0.550841  1
  B  B46  1  0.494858  0.994054  0.301467  1
  B  B47  1  0.325125  0.451065  0.124780  1
  B  B48  1  0.315032  0.445385  0.373158  1
  B  B49  1  0.308889  0.443371  0.625383  1
  B  B50  1  0.315649  0.445367  0.876067  1
  B  B51  1  0.544559  0.875219  0.125245  1
  B  B52  1  0.536925  0.872286  0.378832  1
  B  B53  1  0.529506  0.871681  0.624814  1
  B  B54  1  0.536444  0.873057  0.872169  1
  B  B55  1  0.545734  0.671330  0.124927  1
  B  B56  1  0.535725  0.666100  0.377426  1
  B  B57  1  0.529809  0.665277  0.624640  1
  B  B58  1  0.536235  0.666947  0.872768  1
  B  B59  1  0.500147  0.504865  0.199721  1
  B  B60  1  0.479127  0.488334  0.449785  1
  B  B61  1  0.488431  0.497831  0.949194  1
  B  B62  1  0.479209  0.491583  0.699491  1
  B  B63  1  0.492852  0.500567  0.300659  1
  B  B64  1  0.493603  0.499404  0.050265  1
  B  B65  1  0.477095  0.489159  0.550495  1
  B  B66  1  0.483058  0.492124  0.800210  1
  B  B67  1  0.446743  0.327811  0.125184  1
  B  B68  1  0.437573  0.322677  0.373052  1
  B  B69  1  0.431348  0.321417  0.625566  1
  B  B70  1  0.438782  0.324162  0.876194  1
  B  B71  1  0.446191  0.120252  0.126051  1
  B  B72  1  0.438956  0.117926  0.373543  1
  B  B73  1  0.430927  0.117004  0.625727  1
  B  B74  1  0.438676  0.118220  0.876669  1
  B  B75  1  0.668053  0.548134  0.124513  1
  B  B76  1  0.658617  0.543597  0.377049  1
  B  B77  1  0.652826  0.542327  0.624798  1
  B  B78  1  0.660120  0.545868  0.873798  1
  B  B79  1  0.498761  0.996264  0.200510  1
  B  B80  1  0.487424  0.992735  0.949446  1
  B  B81  1  0.485533  0.997555  0.800093  1
  B  B82  1  0.871296  0.544665  0.125664  1
  B  B83  1  0.864712  0.544362  0.376986  1
  B  B84  1  0.858943  0.541803  0.625289  1
  B  B85  1  0.865620  0.544618  0.873658  1
  B  B86  1  0.667644  0.119646  0.125086  1
  B  B87  1  0.659329  0.118493  0.377373  1
  B  B88  1  0.650893  0.117316  0.624911  1
  B  B89  1  0.659267  0.117706  0.874365  1
  B  B90  1  0.864646  0.323176  0.377188  1
  B  B91  1  0.872159  0.324392  0.125783  1
  B  B92  1  0.857947  0.320135  0.625094  1
  B  B93  1  0.865134  0.323163  0.873744  1
  B  B94  1  0.983577  0.491199  0.699730  1
  B  B95  1  0.986135  0.494283  0.949148  1
  B  B96  1  0.984906  0.493774  0.301215  1
  B  B97  1  0.985067  0.492409  0.550821  1
  B  B98  1  0.988242  0.492913  0.800419  1
  O  O99  1  0.983036  0.992089  0.246000  1
  O  O100  1  0.988923  0.000461  0.498683  1
  O  O101  1  0.989701  0.001310  0.753016  1
