# generated using pymatgen
data_K5As4
_symmetry_space_group_name_H-M   'P 1'
_cell_length_a   6.47489983
_cell_length_b   8.50879209
_cell_length_c   6.54553068
_cell_angle_alpha   113.77443695
_cell_angle_beta   94.93745089
_cell_angle_gamma   89.38810794
_symmetry_Int_Tables_number   1
_chemical_formula_structural   K5As4
_chemical_formula_sum   'K5 As4'
_cell_volume   328.67592379
_cell_formula_units_Z   1
loop_
 _symmetry_equiv_pos_site_id
 _symmetry_equiv_pos_as_xyz
  1  'x, y, z'
loop_
 _atom_site_type_symbol
 _atom_site_label
 _atom_site_symmetry_multiplicity
 _atom_site_fract_x
 _atom_site_fract_y
 _atom_site_fract_z
 _atom_site_occupancy
  K  K1  1  0.277203  0.988040  0.192713  1
  K  K2  1  0.145300  0.279368  0.791385  1
  K  K3  1  0.502157  0.497090  0.496338  1
  K  K4  1  0.860838  0.714008  0.203427  1
  K  K5  1  0.728289  0.004498  0.804002  1
  As  As6  1  0.020004  0.629485  0.677230  1
  As  As7  1  0.774108  0.146173  0.370257  1
  As  As8  1  0.231798  0.847938  0.628192  1
  As  As9  1  0.984003  0.364001  0.318458  1
