# generated using pymatgen
data_LiIn3
_symmetry_space_group_name_H-M   'P 1'
_cell_length_a   5.69079236
_cell_length_b   5.69079236
_cell_length_c   5.69079236
_cell_angle_alpha   133.57358080
_cell_angle_beta   133.57358080
_cell_angle_gamma   67.75479823
_symmetry_Int_Tables_number   1
_chemical_formula_structural   LiIn3
_chemical_formula_sum   'Li1 In3'
_cell_volume   95.08439519
_cell_formula_units_Z   1
loop_
 _symmetry_equiv_pos_site_id
 _symmetry_equiv_pos_as_xyz
  1  'x, y, z'
loop_
 _atom_site_type_symbol
 _atom_site_label
 _atom_site_symmetry_multiplicity
 _atom_site_fract_x
 _atom_site_fract_y
 _atom_site_fract_z
 _atom_site_occupancy
  Li  Li1  1  0.000000  0.000000  -0.000000  1
  In  In2  1  0.749998  0.249999  0.499999  1
  In  In3  1  0.249999  0.749998  0.499999  1
  In  In4  1  0.500001  0.500001  0.000000  1
