# generated using pymatgen
data_Li4Cr3O8
_symmetry_space_group_name_H-M   'P 1'
_cell_length_a   6.11180403
_cell_length_b   10.76169846
_cell_length_c   10.76542114
_cell_angle_alpha   31.19704856
_cell_angle_beta   28.27418209
_cell_angle_gamma   51.25080316
_symmetry_Int_Tables_number   1
_chemical_formula_structural   Li4Cr3O8
_chemical_formula_sum   'Li4 Cr3 O8'
_cell_volume   148.47211176
_cell_formula_units_Z   1
loop_
 _symmetry_equiv_pos_site_id
 _symmetry_equiv_pos_as_xyz
  1  'x, y, z'
loop_
 _atom_site_type_symbol
 _atom_site_label
 _atom_site_symmetry_multiplicity
 _atom_site_fract_x
 _atom_site_fract_y
 _atom_site_fract_z
 _atom_site_occupancy
  Li  Li1  1  0.000556  0.000414  0.999661  1
  Li  Li2  1  0.357231  0.356343  0.000055  1
  Li  Li3  1  0.500020  0.498634  0.000561  1
  Li  Li4  1  0.643202  0.641970  0.000150  1
  Cr  Cr5  1  0.501404  0.999675  0.999324  1
  Cr  Cr6  1  0.499194  0.499644  0.500534  1
  Cr  Cr7  1  0.499880  0.998385  0.501656  1
  O  O8  1  0.235633  0.234469  0.999748  1
  O  O9  1  0.218594  0.743769  0.999069  1
  O  O10  1  0.217546  0.216298  0.526724  1
  O  O11  1  0.271947  0.743703  0.472478  1
  O  O12  1  0.765690  0.764379  -0.000183  1
  O  O13  1  0.784576  0.255776  0.999828  1
  O  O14  1  0.783859  0.782506  0.473029  1
  O  O15  1  0.729848  0.255964  0.527155  1
