# generated using pymatgen
data_Li2CrO3
_symmetry_space_group_name_H-M   'P 1'
_cell_length_a   5.00498227
_cell_length_b   5.00498227
_cell_length_c   5.07768529
_cell_angle_alpha   77.93940823
_cell_angle_beta   102.06059177
_cell_angle_gamma   63.18639524
_symmetry_Int_Tables_number   1
_chemical_formula_structural   Li2CrO3
_chemical_formula_sum   'Li4 Cr2 O6'
_cell_volume   104.09931847
_cell_formula_units_Z   2
loop_
 _symmetry_equiv_pos_site_id
 _symmetry_equiv_pos_as_xyz
  1  'x, y, z'
loop_
 _atom_site_type_symbol
 _atom_site_label
 _atom_site_symmetry_multiplicity
 _atom_site_fract_x
 _atom_site_fract_y
 _atom_site_fract_z
 _atom_site_occupancy
  Li  Li1  1  0.246860  0.263583  0.490992  1
  Li  Li2  1  0.568888  0.595887  0.496887  1
  Li  Li3  1  0.404113  0.431112  0.996887  1
  Li  Li4  1  0.736417  0.753140  0.990992  1
  Cr  Cr5  1  0.909836  0.918153  0.496322  1
  Cr  Cr6  1  0.081847  0.090164  0.996322  1
  O  O7  1  0.285628  0.861331  0.748540  1
  O  O8  1  0.138669  0.714372  0.248540  1
  O  O9  1  0.990181  0.512536  0.735284  1
  O  O10  1  0.704114  0.156414  0.729773  1
  O  O11  1  0.487464  0.009819  0.235284  1
  O  O12  1  0.843586  0.295886  0.229773  1
