# generated using pymatgen
data_LiCr4O12
_symmetry_space_group_name_H-M   'P 1'
_cell_length_a   8.54567033
_cell_length_b   15.63254400
_cell_length_c   8.54567033
_cell_angle_alpha   74.13751496
_cell_angle_beta   90.00000000
_cell_angle_gamma   105.86248504
_symmetry_Int_Tables_number   1
_chemical_formula_structural   LiCr4O12
_chemical_formula_sum   'Li4 Cr16 O48'
_cell_volume   1052.88279570
_cell_formula_units_Z   4
loop_
 _symmetry_equiv_pos_site_id
 _symmetry_equiv_pos_as_xyz
  1  'x, y, z'
loop_
 _atom_site_type_symbol
 _atom_site_label
 _atom_site_symmetry_multiplicity
 _atom_site_fract_x
 _atom_site_fract_y
 _atom_site_fract_z
 _atom_site_occupancy
  Li  Li1  1  0.124836  0.749672  0.125164  1
  Li  Li2  1  0.374836  0.249672  0.375164  1
  Li  Li3  1  0.625164  0.750328  0.624836  1
  Li  Li4  1  0.875164  0.250328  0.874836  1
  Cr  Cr5  1  0.159175  0.100740  0.094655  1
  Cr  Cr6  1  0.405345  0.600740  0.058435  1
  Cr  Cr7  1  0.090590  0.396090  0.159569  1
  Cr  Cr8  1  0.659569  0.103910  0.305499  1
  Cr  Cr9  1  0.558435  0.899260  0.195395  1
  Cr  Cr10  1  0.944341  0.103910  0.590590  1
  Cr  Cr11  1  0.805499  0.396090  0.444342  1
  Cr  Cr12  1  0.695395  0.600740  0.340825  1
  Cr  Cr13  1  0.304605  0.399260  0.659175  1
  Cr  Cr14  1  0.194501  0.603910  0.555659  1
  Cr  Cr15  1  0.055658  0.896090  0.409410  1
  Cr  Cr16  1  0.441565  0.100740  0.804605  1
  Cr  Cr17  1  0.340431  0.896090  0.694501  1
  Cr  Cr18  1  0.909410  0.603910  0.840431  1
  Cr  Cr19  1  0.594655  0.399260  0.941565  1
  Cr  Cr20  1  0.840825  0.899260  0.905345  1
  O  O21  1  0.991112  0.359713  0.019226  1
  O  O22  1  0.768967  0.178332  0.148047  1
  O  O23  1  0.062798  0.000940  0.247565  1
  O  O24  1  0.268336  0.178198  0.169616  1
  O  O25  1  0.494716  0.360828  0.117957  1
  O  O26  1  0.252435  0.500940  0.061857  1
  O  O27  1  0.173622  0.321668  0.268967  1
  O  O28  1  0.330384  0.678198  0.090138  1
  O  O29  1  0.519226  0.140287  0.368602  1
  O  O30  1  0.978784  0.860828  0.005284  1
  O  O31  1  0.962046  0.424092  0.287954  1
  O  O32  1  0.712757  0.925513  0.037243  1
  O  O33  1  0.537243  0.574487  0.212757  1
  O  O34  1  0.787954  0.075908  0.462046  1
  O  O35  1  0.382043  0.860828  0.133889  1
  O  O36  1  0.121061  0.140287  0.491112  1
  O  O37  1  0.847814  0.678198  0.231664  1
  O  O38  1  0.648047  0.321668  0.409366  1
  O  O39  1  0.748505  0.500940  0.437202  1
  O  O40  1  0.366111  0.360828  0.521216  1
  O  O41  1  0.131398  0.640287  0.378939  1
  O  O42  1  0.409862  0.178198  0.652186  1
  O  O43  1  0.090634  0.821668  0.326378  1
  O  O44  1  0.438143  0.000940  0.751495  1
  O  O45  1  0.561857  0.999060  0.248505  1
  O  O46  1  0.909366  0.178332  0.673622  1
  O  O47  1  0.590138  0.821802  0.347814  1
  O  O48  1  0.868602  0.359713  0.621061  1
  O  O49  1  0.633889  0.639172  0.478784  1
  O  O50  1  0.251495  0.499060  0.562798  1
  O  O51  1  0.351953  0.678332  0.590634  1
  O  O52  1  0.152186  0.321802  0.768336  1
  O  O53  1  0.878939  0.859713  0.508888  1
  O  O54  1  0.617957  0.139172  0.866111  1
  O  O55  1  0.212046  0.924092  0.537954  1
  O  O56  1  0.037954  0.575908  0.712046  1
  O  O57  1  0.287243  0.074487  0.962757  1
  O  O58  1  0.462757  0.425513  0.787243  1
  O  O59  1  0.021216  0.139172  0.994716  1
  O  O60  1  0.480774  0.859713  0.631398  1
  O  O61  1  0.669616  0.321802  0.909862  1
  O  O62  1  0.826378  0.678332  0.731033  1
  O  O63  1  0.747565  0.499060  0.938143  1
  O  O64  1  0.505284  0.639172  0.882043  1
  O  O65  1  0.731664  0.821802  0.830384  1
  O  O66  1  0.937202  0.999060  0.752435  1
  O  O67  1  0.231033  0.821668  0.851953  1
  O  O68  1  0.008888  0.640287  0.980774  1
