# generated using pymatgen
data_Li2CrO3
_symmetry_space_group_name_H-M   'P 1'
_cell_length_a   5.94482292
_cell_length_b   5.94482292
_cell_length_c   5.35454603
_cell_angle_alpha   56.51658813
_cell_angle_beta   123.48341187
_cell_angle_gamma   121.30186978
_symmetry_Int_Tables_number   1
_chemical_formula_structural   Li2CrO3
_chemical_formula_sum   'Li4 Cr2 O6'
_cell_volume   125.18148732
_cell_formula_units_Z   2
loop_
 _symmetry_equiv_pos_site_id
 _symmetry_equiv_pos_as_xyz
  1  'x, y, z'
loop_
 _atom_site_type_symbol
 _atom_site_label
 _atom_site_symmetry_multiplicity
 _atom_site_fract_x
 _atom_site_fract_y
 _atom_site_fract_z
 _atom_site_occupancy
  Li  Li1  1  0.261479  0.585779  0.752356  1
  Li  Li2  1  0.414221  0.738521  0.252356  1
  Li  Li3  1  0.585779  0.261479  0.747644  1
  Li  Li4  1  0.738521  0.414221  0.247644  1
  Cr  Cr5  1  0.914017  0.914017  0.750000  1
  Cr  Cr6  1  0.085983  0.085983  0.250000  1
  O  O7  1  0.215894  0.917271  0.734408  1
  O  O8  1  0.082729  0.784106  0.234408  1
  O  O9  1  0.610496  0.610496  0.750000  1
  O  O10  1  0.389504  0.389504  0.250000  1
  O  O11  1  0.917271  0.215894  0.765592  1
  O  O12  1  0.784106  0.082729  0.265592  1
