# generated using pymatgen
data_Li2CrO4
_symmetry_space_group_name_H-M   'P 1'
_cell_length_a   6.65923319
_cell_length_b   5.36152769
_cell_length_c   5.06824977
_cell_angle_alpha   90.00000000
_cell_angle_beta   90.00000000
_cell_angle_gamma   90.00000000
_symmetry_Int_Tables_number   1
_chemical_formula_structural   Li2CrO4
_chemical_formula_sum   'Li4 Cr2 O8'
_cell_volume   180.95508251
_cell_formula_units_Z   2
loop_
 _symmetry_equiv_pos_site_id
 _symmetry_equiv_pos_as_xyz
  1  'x, y, z'
loop_
 _atom_site_type_symbol
 _atom_site_label
 _atom_site_symmetry_multiplicity
 _atom_site_fract_x
 _atom_site_fract_y
 _atom_site_fract_z
 _atom_site_occupancy
  Li  Li1  1  0.246404  0.322041  0.992526  1
  Li  Li2  1  0.253596  0.677959  0.492526  1
  Li  Li3  1  0.746404  0.677959  0.492526  1
  Li  Li4  1  0.753596  0.322041  0.992526  1
  Cr  Cr5  1  0.000000  0.821880  0.001706  1
  Cr  Cr6  1  0.500000  0.178120  0.501706  1
  O  O7  1  0.000000  0.121106  0.915890  1
  O  O8  1  0.000000  0.796101  0.328594  1
  O  O9  1  0.203248  0.678331  0.884330  1
  O  O10  1  0.296752  0.321669  0.384330  1
  O  O11  1  0.500000  0.203899  0.828594  1
  O  O12  1  0.500000  0.878894  0.415890  1
  O  O13  1  0.703248  0.321669  0.384330  1
  O  O14  1  0.796752  0.678331  0.884330  1
