# generated using pymatgen
data_LiTe3
_symmetry_space_group_name_H-M   'P 1'
_cell_length_a   8.77807483
_cell_length_b   8.77807483
_cell_length_c   21.51237657
_cell_angle_alpha   90.00000000
_cell_angle_beta   90.00000000
_cell_angle_gamma   119.99999997
_symmetry_Int_Tables_number   1
_chemical_formula_structural   LiTe3
_chemical_formula_sum   'Li12 Te36'
_cell_volume   1435.54754478
_cell_formula_units_Z   12
loop_
 _symmetry_equiv_pos_site_id
 _symmetry_equiv_pos_as_xyz
  1  'x, y, z'
loop_
 _atom_site_type_symbol
 _atom_site_label
 _atom_site_symmetry_multiplicity
 _atom_site_fract_x
 _atom_site_fract_y
 _atom_site_fract_z
 _atom_site_occupancy
  Li  Li1  1  0.333333  0.666667  0.417949  1
  Li  Li2  1  0.666667  0.333333  0.082051  1
  Li  Li3  1  0.666667  0.333333  0.582051  1
  Li  Li4  1  0.333333  0.666667  0.917949  1
  Li  Li5  1  0.333333  0.666667  0.665446  1
  Li  Li6  1  0.666667  0.333333  0.834554  1
  Li  Li7  1  0.666667  0.333333  0.334554  1
  Li  Li8  1  0.333333  0.666667  0.165446  1
  Li  Li9  1  0.000000  0.000000  0.750000  1
  Li  Li10  1  0.000000  0.000000  0.250000  1
  Li  Li11  1  0.000000  0.000000  0.500000  1
  Li  Li12  1  0.000000  0.000000  0.000000  1
  Te  Te13  1  0.177301  0.336757  0.082680  1
  Te  Te14  1  0.663243  0.840544  0.082680  1
  Te  Te15  1  0.159456  0.822699  0.082680  1
  Te  Te16  1  0.840544  0.663243  0.417320  1
  Te  Te17  1  0.822699  0.159456  0.417320  1
  Te  Te18  1  0.336757  0.177301  0.417320  1
  Te  Te19  1  0.822699  0.663243  0.917320  1
  Te  Te20  1  0.336757  0.159456  0.917320  1
  Te  Te21  1  0.840544  0.177301  0.917320  1
  Te  Te22  1  0.159456  0.336757  0.582680  1
  Te  Te23  1  0.177301  0.840544  0.582680  1
  Te  Te24  1  0.663243  0.822699  0.582680  1
  Te  Te25  1  0.852723  0.669670  0.165775  1
  Te  Te26  1  0.330330  0.183053  0.165775  1
  Te  Te27  1  0.816947  0.147277  0.165775  1
  Te  Te28  1  0.183053  0.330330  0.334225  1
  Te  Te29  1  0.147277  0.816947  0.334225  1
  Te  Te30  1  0.669670  0.852723  0.334225  1
  Te  Te31  1  0.147277  0.330330  0.834225  1
  Te  Te32  1  0.669670  0.816947  0.834225  1
  Te  Te33  1  0.183053  0.852723  0.834225  1
  Te  Te34  1  0.816947  0.669670  0.665775  1
  Te  Te35  1  0.852723  0.183053  0.665775  1
  Te  Te36  1  0.330330  0.147277  0.665775  1
  Te  Te37  1  0.521822  0.521822  0.750000  1
  Te  Te38  1  0.000000  0.478178  0.750000  1
  Te  Te39  1  0.478178  0.000000  0.750000  1
  Te  Te40  1  0.478178  0.478178  0.250000  1
  Te  Te41  1  0.000000  0.521822  0.250000  1
  Te  Te42  1  0.521822  0.000000  0.250000  1
  Te  Te43  1  0.000000  0.500000  0.500000  1
  Te  Te44  1  0.500000  0.500000  0.500000  1
  Te  Te45  1  0.500000  0.000000  0.500000  1
  Te  Te46  1  0.500000  0.500000  0.000000  1
  Te  Te47  1  0.000000  0.500000  0.000000  1
  Te  Te48  1  0.500000  0.000000  0.000000  1
