# generated using pymatgen
data_Li8Pb3
_symmetry_space_group_name_H-M   'P 1'
_cell_length_a   4.76949964
_cell_length_b   4.76209806
_cell_length_c   11.09344400
_cell_angle_alpha   102.26256102
_cell_angle_beta   90.00000000
_cell_angle_gamma   120.05142811
_symmetry_Int_Tables_number   1
_chemical_formula_structural   Li8Pb3
_chemical_formula_sum   'Li8 Pb3'
_cell_volume   211.42600538
_cell_formula_units_Z   1
loop_
 _symmetry_equiv_pos_site_id
 _symmetry_equiv_pos_as_xyz
  1  'x, y, z'
loop_
 _atom_site_type_symbol
 _atom_site_label
 _atom_site_symmetry_multiplicity
 _atom_site_fract_x
 _atom_site_fract_y
 _atom_site_fract_z
 _atom_site_occupancy
  Li  Li1  1  0.911760  0.823520  0.734142  1
  Li  Li2  1  0.088240  0.176480  0.265858  1
  Li  Li3  1  0.821118  0.642236  0.463342  1
  Li  Li4  1  0.361869  0.723737  0.085881  1
  Li  Li5  1  0.638131  0.276263  0.914119  1
  Li  Li6  1  0.273043  0.546086  0.819608  1
  Li  Li7  1  0.726957  0.453914  0.180392  1
  Li  Li8  1  0.178882  0.357764  0.536658  1
  Pb  Pb9  1  0.547891  0.095782  0.643122  1
  Pb  Pb10  1  0.452109  0.904218  0.356878  1
  Pb  Pb11  1  0.000000  0.000000  0.000000  1
