# generated using pymatgen
data_LiP7
_symmetry_space_group_name_H-M   'P 1'
_cell_length_a   12.16080117
_cell_length_b   12.16080116
_cell_length_c   12.16080116
_cell_angle_alpha   104.84375616
_cell_angle_beta   111.83333570
_cell_angle_gamma   111.83333569
_symmetry_Int_Tables_number   1
_chemical_formula_structural   LiP7
_chemical_formula_sum   'Li8 P56'
_cell_volume   1377.70927516
_cell_formula_units_Z   8
loop_
 _symmetry_equiv_pos_site_id
 _symmetry_equiv_pos_as_xyz
  1  'x, y, z'
loop_
 _atom_site_type_symbol
 _atom_site_label
 _atom_site_symmetry_multiplicity
 _atom_site_fract_x
 _atom_site_fract_y
 _atom_site_fract_z
 _atom_site_occupancy
  Li  Li1  1  0.987515  0.743757  0.493757  1
  Li  Li2  1  0.750000  0.493757  0.006243  1
  Li  Li3  1  0.750000  0.756243  0.743757  1
  Li  Li4  1  0.512485  0.006243  0.756243  1
  Li  Li5  1  0.012485  0.256243  0.506243  1
  Li  Li6  1  0.250000  0.506243  0.993757  1
  Li  Li7  1  0.250000  0.243757  0.256243  1
  Li  Li8  1  0.487515  0.993757  0.243757  1
  P  P9  1  0.632791  0.418929  0.142734  1
  P  P10  1  0.723805  0.142734  0.009944  1
  P  P11  1  0.776195  0.786139  0.418929  1
  P  P12  1  0.776195  0.490056  0.357266  1
  P  P13  1  0.723805  0.081071  0.713861  1
  P  P14  1  0.867209  0.009944  0.786139  1
  P  P15  1  0.867209  0.357266  0.081071  1
  P  P16  1  0.632791  0.713861  0.490056  1
  P  P17  1  0.367209  0.581071  0.857266  1
  P  P18  1  0.276195  0.857266  0.990056  1
  P  P19  1  0.223805  0.213861  0.581071  1
  P  P20  1  0.223805  0.509944  0.642734  1
  P  P21  1  0.276195  0.918929  0.286139  1
  P  P22  1  0.132791  0.990056  0.213861  1
  P  P23  1  0.132791  0.642734  0.918929  1
  P  P24  1  0.367209  0.286139  0.509944  1
  P  P25  1  0.496429  0.207941  0.084931  1
  P  P26  1  0.876990  0.084931  0.088501  1
  P  P27  1  0.623010  0.711512  0.207941  1
  P  P28  1  0.623010  0.411499  0.415069  1
  P  P29  1  0.876990  0.292059  0.788488  1
  P  P30  1  0.003571  0.088501  0.711512  1
  P  P31  1  0.003571  0.415069  0.292059  1
  P  P32  1  0.496429  0.788488  0.411499  1
  P  P33  1  0.503571  0.792059  0.915069  1
  P  P34  1  0.123010  0.915069  0.911499  1
  P  P35  1  0.376990  0.288488  0.792059  1
  P  P36  1  0.376990  0.588501  0.584931  1
  P  P37  1  0.123010  0.707941  0.211512  1
  P  P38  1  0.996429  0.911499  0.288488  1
  P  P39  1  0.996429  0.584931  0.707941  1
  P  P40  1  0.503571  0.211512  0.588501  1
  P  P41  1  0.844170  0.342491  0.345614  1
  P  P42  1  0.003123  0.345614  0.001445  1
  P  P43  1  0.496877  0.498321  0.342491  1
  P  P44  1  0.496877  0.498555  0.154386  1
  P  P45  1  0.003123  0.157509  0.001679  1
  P  P46  1  0.655830  0.001445  0.498321  1
  P  P47  1  0.655830  0.154386  0.157509  1
  P  P48  1  0.844170  0.001679  0.498555  1
  P  P49  1  0.155830  0.657509  0.654386  1
  P  P50  1  0.996877  0.654386  0.998555  1
  P  P51  1  0.503123  0.501679  0.657509  1
  P  P52  1  0.503123  0.501445  0.845614  1
  P  P53  1  0.996877  0.842491  0.998321  1
  P  P54  1  0.344170  0.998555  0.501679  1
  P  P55  1  0.344170  0.845614  0.842491  1
  P  P56  1  0.155830  0.998321  0.501445  1
  P  P57  1  0.040130  0.250000  0.290130  1
  P  P58  1  0.040130  0.290130  0.750000  1
  P  P59  1  0.459870  0.209870  0.250000  1
  P  P60  1  0.459870  0.750000  0.209870  1
  P  P61  1  0.959870  0.750000  0.709870  1
  P  P62  1  0.959870  0.709870  0.250000  1
  P  P63  1  0.540130  0.790130  0.750000  1
  P  P64  1  0.540130  0.250000  0.790130  1
