# generated using pymatgen
data_LiCr6O11
_symmetry_space_group_name_H-M   'P 1'
_cell_length_a   5.82113936
_cell_length_b   5.82114303
_cell_length_c   12.93740724
_cell_angle_alpha   89.86577191
_cell_angle_beta   89.83233489
_cell_angle_gamma   120.16920361
_symmetry_Int_Tables_number   1
_chemical_formula_structural   LiCr6O11
_chemical_formula_sum   'Li2 Cr12 O22'
_cell_volume   379.00510525
_cell_formula_units_Z   2
loop_
 _symmetry_equiv_pos_site_id
 _symmetry_equiv_pos_as_xyz
  1  'x, y, z'
loop_
 _atom_site_type_symbol
 _atom_site_label
 _atom_site_symmetry_multiplicity
 _atom_site_fract_x
 _atom_site_fract_y
 _atom_site_fract_z
 _atom_site_occupancy
  Li  Li1  1  0.333365  0.666695  0.259354  1
  Li  Li2  1  0.665660  0.331722  0.759712  1
  Cr  Cr3  1  0.999535  0.499757  0.999350  1
  Cr  Cr4  1  0.333353  0.666463  0.749371  1
  Cr  Cr5  1  0.001753  0.000596  0.144823  1
  Cr  Cr6  1  0.999420  0.998431  0.353881  1
  Cr  Cr7  1  0.000724  0.001920  0.644901  1
  Cr  Cr8  1  0.998228  0.999421  0.853949  1
  Cr  Cr9  1  0.499770  -0.000221  0.999661  1
  Cr  Cr10  1  0.499785  0.499941  0.999531  1
  Cr  Cr11  1  0.499892  0.499774  0.499648  1
  Cr  Cr12  1  0.666649  0.333738  0.249208  1
  Cr  Cr13  1  0.499772  0.999505  0.499300  1
  Cr  Cr14  1  -0.000156  0.499742  0.499690  1
  O  O15  1  0.152879  0.846515  0.749223  1
  O  O16  1  0.168487  0.817407  0.420211  1
  O  O17  1  0.182074  0.832250  0.077726  1
  O  O18  1  0.331637  0.663680  0.586852  1
  O  O19  1  0.335784  0.668389  0.912023  1
  O  O20  1  0.177962  0.355668  0.418522  1
  O  O21  1  0.152931  0.305666  0.749941  1
  O  O22  1  0.180763  0.345609  0.075323  1
  O  O23  1  0.305904  0.153304  0.249751  1
  O  O24  1  0.648626  0.824884  0.078150  1
  O  O25  1  0.649337  0.817276  0.420617  1
  O  O26  1  0.355295  0.177036  0.918590  1
  O  O27  1  0.347675  0.181664  0.576392  1
  O  O28  1  0.694060  0.846741  0.748824  1
  O  O29  1  0.818160  0.651272  0.921669  1
  O  O30  1  0.663884  0.331400  0.086853  1
  O  O31  1  0.668245  0.336053  0.411997  1
  O  O32  1  0.847127  0.694410  0.248633  1
  O  O33  1  0.824081  0.648428  0.578247  1
  O  O34  1  0.833463  0.181561  0.576804  1
  O  O35  1  0.816779  0.169767  0.919279  1
  O  O36  1  0.847107  0.153575  0.249311  1
