# generated using pymatgen
data_Li2CrO4
_symmetry_space_group_name_H-M   'P 1'
_cell_length_a   7.80107494
_cell_length_b   5.28603083
_cell_length_c   5.19349172
_cell_angle_alpha   65.94560738
_cell_angle_beta   109.77342374
_cell_angle_gamma   98.40880507
_symmetry_Int_Tables_number   1
_chemical_formula_structural   Li2CrO4
_chemical_formula_sum   'Li4 Cr2 O8'
_cell_volume   184.02488209
_cell_formula_units_Z   2
loop_
 _symmetry_equiv_pos_site_id
 _symmetry_equiv_pos_as_xyz
  1  'x, y, z'
loop_
 _atom_site_type_symbol
 _atom_site_label
 _atom_site_symmetry_multiplicity
 _atom_site_fract_x
 _atom_site_fract_y
 _atom_site_fract_z
 _atom_site_occupancy
  Li  Li1  1  0.178231  0.283683  0.409406  1
  Li  Li2  1  0.466448  0.741335  0.486027  1
  Li  Li3  1  0.564518  0.276697  0.505420  1
  Li  Li4  1  0.978725  0.237369  0.779282  1
  Cr  Cr5  1  0.248295  0.717644  0.842398  1
  Cr  Cr6  1  0.747992  0.277251  0.151745  1
  O  O7  1  0.072454  0.875022  0.813724  1
  O  O8  1  0.184629  0.487389  0.682612  1
  O  O9  1  0.377722  0.960805  0.662250  1
  O  O10  1  0.355526  0.543816  0.207955  1
  O  O11  1  0.627858  0.458039  0.803490  1
  O  O12  1  0.617000  0.019486  0.295308  1
  O  O13  1  0.796542  0.450598  0.371494  1
  O  O14  1  0.944360  0.180067  0.151287  1
