# generated using pymatgen
data_LiCr2O3
_symmetry_space_group_name_H-M   'P 1'
_cell_length_a   5.27972625
_cell_length_b   5.26476838
_cell_length_c   10.06167232
_cell_angle_alpha   85.76244426
_cell_angle_beta   98.47427201
_cell_angle_gamma   120.09402844
_symmetry_Int_Tables_number   1
_chemical_formula_structural   LiCr2O3
_chemical_formula_sum   'Li4 Cr8 O12'
_cell_volume   239.33794750
_cell_formula_units_Z   4
loop_
 _symmetry_equiv_pos_site_id
 _symmetry_equiv_pos_as_xyz
  1  'x, y, z'
loop_
 _atom_site_type_symbol
 _atom_site_label
 _atom_site_symmetry_multiplicity
 _atom_site_fract_x
 _atom_site_fract_y
 _atom_site_fract_z
 _atom_site_occupancy
  Li  Li1  1  0.240136  0.480272  0.750000  1
  Li  Li2  1  0.429118  0.858236  0.250000  1
  Li  Li3  1  0.570882  0.141764  0.750000  1
  Li  Li4  1  0.759864  0.519728  0.250000  1
  Cr  Cr5  1  0.168401  0.833584  0.498564  1
  Cr  Cr6  1  0.000000  0.500000  0.000000  1
  Cr  Cr7  1  0.094046  0.188093  0.250000  1
  Cr  Cr8  1  0.500000  0.500000  0.500000  1
  Cr  Cr9  1  0.665183  0.833584  0.001436  1
  Cr  Cr10  1  0.334817  0.166416  0.998564  1
  Cr  Cr11  1  0.905954  0.811907  0.750000  1
  Cr  Cr12  1  0.831599  0.166416  0.501436  1
  O  O13  1  0.041887  0.873689  0.121558  1
  O  O14  1  0.311722  0.838259  0.891303  1
  O  O15  1  0.122825  0.495299  0.386049  1
  O  O16  1  0.526537  0.838259  0.608697  1
  O  O17  1  0.168198  0.126311  0.621558  1
  O  O18  1  0.627526  0.504701  0.886049  1
  O  O19  1  0.372474  0.495299  0.113951  1
  O  O20  1  0.831802  0.873689  0.378442  1
  O  O21  1  0.473463  0.161741  0.391303  1
  O  O22  1  0.877175  0.504701  0.613951  1
  O  O23  1  0.688278  0.161741  0.108697  1
  O  O24  1  0.958113  0.126311  0.878442  1
