# generated using pymatgen
data_Li2CrO2
_symmetry_space_group_name_H-M   'P 1'
_cell_length_a   2.95202424
_cell_length_b   5.14098773
_cell_length_c   7.20649841
_cell_angle_alpha   90.00000000
_cell_angle_beta   90.00000000
_cell_angle_gamma   106.68481855
_symmetry_Int_Tables_number   1
_chemical_formula_structural   Li2CrO2
_chemical_formula_sum   'Li4 Cr2 O4'
_cell_volume   104.76357770
_cell_formula_units_Z   2
loop_
 _symmetry_equiv_pos_site_id
 _symmetry_equiv_pos_as_xyz
  1  'x, y, z'
loop_
 _atom_site_type_symbol
 _atom_site_label
 _atom_site_symmetry_multiplicity
 _atom_site_fract_x
 _atom_site_fract_y
 _atom_site_fract_z
 _atom_site_occupancy
  Li  Li1  1  0.113648  0.227295  0.634359  1
  Li  Li2  1  0.395007  0.790015  0.852734  1
  Li  Li3  1  0.886352  0.772705  0.134359  1
  Li  Li4  1  0.604993  0.209985  0.352734  1
  Cr  Cr5  1  0.142569  0.285137  0.011157  1
  Cr  Cr6  1  0.857431  0.714863  0.511157  1
  O  O7  1  0.232922  0.465844  0.415876  1
  O  O8  1  0.486193  0.972385  0.600765  1
  O  O9  1  0.767078  0.534156  0.915876  1
  O  O10  1  0.513807  0.027615  0.100765  1
