# generated using pymatgen
data_Li2CrO2
_symmetry_space_group_name_H-M   'P 1'
_cell_length_a   3.49451729
_cell_length_b   3.49456034
_cell_length_c   5.47704590
_cell_angle_alpha   79.51531855
_cell_angle_beta   79.51370823
_cell_angle_gamma   50.34151042
_symmetry_Int_Tables_number   1
_chemical_formula_structural   Li2CrO2
_chemical_formula_sum   'Li2 Cr1 O2'
_cell_volume   50.44018558
_cell_formula_units_Z   1
loop_
 _symmetry_equiv_pos_site_id
 _symmetry_equiv_pos_as_xyz
  1  'x, y, z'
loop_
 _atom_site_type_symbol
 _atom_site_label
 _atom_site_symmetry_multiplicity
 _atom_site_fract_x
 _atom_site_fract_y
 _atom_site_fract_z
 _atom_site_occupancy
  Li  Li1  1  0.327347  0.327086  0.630844  1
  Li  Li2  1  0.672906  0.672668  0.369165  1
  Cr  Cr3  1  0.999413  0.000573  -0.000031  1
  O  O4  1  0.388542  0.388191  0.258850  1
  O  O5  1  0.611791  0.611482  0.741173  1
