# generated using pymatgen
data_Li22Si5
_symmetry_space_group_name_H-M   'P 1'
_cell_length_a   13.18393348
_cell_length_b   13.18393407
_cell_length_c   13.18393351
_cell_angle_alpha   60.00000137
_cell_angle_beta   59.99999989
_cell_angle_gamma   59.99999996
_symmetry_Int_Tables_number   1
_chemical_formula_structural   Li22Si5
_chemical_formula_sum   'Li88 Si20'
_cell_volume   1620.39179608
_cell_formula_units_Z   4
loop_
 _symmetry_equiv_pos_site_id
 _symmetry_equiv_pos_as_xyz
  1  'x, y, z'
loop_
 _atom_site_type_symbol
 _atom_site_label
 _atom_site_symmetry_multiplicity
 _atom_site_fract_x
 _atom_site_fract_y
 _atom_site_fract_z
 _atom_site_occupancy
  Li  Li1  1  0.000000  0.000000  0.000000  1
  Li  Li2  1  0.826598  0.826598  0.826598  1
  Li  Li3  1  0.520205  0.826598  0.826598  1
  Li  Li4  1  0.826598  0.520205  0.826598  1
  Li  Li5  1  0.826598  0.826598  0.520205  1
  Li  Li6  1  0.827610  0.172390  0.172390  1
  Li  Li7  1  0.172390  0.827610  0.172390  1
  Li  Li8  1  0.172390  0.172390  0.827610  1
  Li  Li9  1  0.827610  0.827610  0.172390  1
  Li  Li10  1  0.827610  0.172390  0.827610  1
  Li  Li11  1  0.172390  0.827610  0.827610  1
  Li  Li12  1  0.916855  0.583145  0.583145  1
  Li  Li13  1  0.583145  0.916855  0.583145  1
  Li  Li14  1  0.583145  0.583145  0.916855  1
  Li  Li15  1  0.916855  0.916855  0.583145  1
  Li  Li16  1  0.916855  0.583145  0.916855  1
  Li  Li17  1  0.583145  0.916855  0.916855  1
  Li  Li18  1  0.319804  0.668636  0.005780  1
  Li  Li19  1  0.005780  0.319804  0.668636  1
  Li  Li20  1  0.668636  0.005780  0.319804  1
  Li  Li21  1  0.005780  0.319804  0.005780  1
  Li  Li22  1  0.668636  0.005780  0.005780  1
  Li  Li23  1  0.005780  0.668636  0.319804  1
  Li  Li24  1  0.005780  0.668636  0.005780  1
  Li  Li25  1  0.319804  0.005780  0.005780  1
  Li  Li26  1  0.319804  0.005780  0.668636  1
  Li  Li27  1  0.005780  0.005780  0.319804  1
  Li  Li28  1  0.005780  0.005780  0.668636  1
  Li  Li29  1  0.668636  0.319804  0.005780  1
  Li  Li30  1  0.506366  0.506366  0.816260  1
  Li  Li31  1  0.816260  0.506366  0.506366  1
  Li  Li32  1  0.506366  0.816260  0.506366  1
  Li  Li33  1  0.171008  0.506366  0.816260  1
  Li  Li34  1  0.506366  0.171008  0.816260  1
  Li  Li35  1  0.171008  0.506366  0.506366  1
  Li  Li36  1  0.816260  0.506366  0.171008  1
  Li  Li37  1  0.506366  0.816260  0.171008  1
  Li  Li38  1  0.506366  0.171008  0.506366  1
  Li  Li39  1  0.816260  0.171008  0.506366  1
  Li  Li40  1  0.171008  0.816260  0.506366  1
  Li  Li41  1  0.506366  0.506366  0.171008  1
  Li  Li42  1  0.922793  0.258283  0.258283  1
  Li  Li43  1  0.258283  0.922793  0.258283  1
  Li  Li44  1  0.258283  0.258283  0.922793  1
  Li  Li45  1  0.560641  0.922793  0.258283  1
  Li  Li46  1  0.258283  0.560641  0.258283  1
  Li  Li47  1  0.560641  0.258283  0.922793  1
  Li  Li48  1  0.258283  0.258283  0.560641  1
  Li  Li49  1  0.922793  0.258283  0.560641  1
  Li  Li50  1  0.922793  0.560641  0.258283  1
  Li  Li51  1  0.258283  0.560641  0.922793  1
  Li  Li52  1  0.560641  0.258283  0.258283  1
  Li  Li53  1  0.258283  0.922793  0.560641  1
  Li  Li54  1  0.421532  0.749704  0.749704  1
  Li  Li55  1  0.749704  0.421532  0.749704  1
  Li  Li56  1  0.749704  0.749704  0.421532  1
  Li  Li57  1  0.079061  0.421532  0.749704  1
  Li  Li58  1  0.749704  0.079061  0.749704  1
  Li  Li59  1  0.079061  0.749704  0.421532  1
  Li  Li60  1  0.749704  0.749704  0.079061  1
  Li  Li61  1  0.421532  0.749704  0.079061  1
  Li  Li62  1  0.421532  0.079061  0.749704  1
  Li  Li63  1  0.749704  0.079061  0.421532  1
  Li  Li64  1  0.079061  0.749704  0.749704  1
  Li  Li65  1  0.749704  0.421532  0.079061  1
  Li  Li66  1  0.500000  0.500000  0.500000  1
  Li  Li67  1  0.250000  0.250000  0.250000  1
  Li  Li68  1  0.750000  0.750000  0.750000  1
  Li  Li69  1  0.071486  0.071486  0.071486  1
  Li  Li70  1  0.785541  0.071486  0.071486  1
  Li  Li71  1  0.071486  0.785541  0.071486  1
  Li  Li72  1  0.071486  0.071486  0.785541  1
  Li  Li73  1  0.168028  0.168028  0.168028  1
  Li  Li74  1  0.495916  0.168028  0.168028  1
  Li  Li75  1  0.168028  0.495916  0.168028  1
  Li  Li76  1  0.168028  0.168028  0.495916  1
  Li  Li77  1  0.324969  0.324969  0.324969  1
  Li  Li78  1  0.025093  0.324969  0.324969  1
  Li  Li79  1  0.324969  0.025093  0.324969  1
  Li  Li80  1  0.324969  0.324969  0.025093  1
  Li  Li81  1  0.423193  0.423193  0.423193  1
  Li  Li82  1  0.730422  0.423193  0.423193  1
  Li  Li83  1  0.423193  0.730422  0.423193  1
  Li  Li84  1  0.423193  0.423193  0.730422  1
  Li  Li85  1  0.582842  0.582842  0.582842  1
  Li  Li86  1  0.251474  0.582842  0.582842  1
  Li  Li87  1  0.582842  0.251474  0.582842  1
  Li  Li88  1  0.582842  0.582842  0.251474  1
  Si  Si89  1  0.911911  0.911911  0.911911  1
  Si  Si90  1  0.264267  0.911911  0.911911  1
  Si  Si91  1  0.911911  0.264267  0.911911  1
  Si  Si92  1  0.911911  0.911911  0.264267  1
  Si  Si93  1  0.666679  0.666679  0.666679  1
  Si  Si94  1  -0.000038  0.666679  0.666679  1
  Si  Si95  1  0.666679  -0.000038  0.666679  1
  Si  Si96  1  0.666679  0.666679  -0.000038  1
  Si  Si97  1  0.675845  0.324155  0.324155  1
  Si  Si98  1  0.324155  0.675845  0.324155  1
  Si  Si99  1  0.324155  0.324155  0.675845  1
  Si  Si100  1  0.675845  0.675845  0.324155  1
  Si  Si101  1  0.675845  0.324155  0.675845  1
  Si  Si102  1  0.324155  0.675845  0.675845  1
  Si  Si103  1  0.425485  0.074515  0.074515  1
  Si  Si104  1  0.074515  0.425485  0.074515  1
  Si  Si105  1  0.074515  0.074515  0.425485  1
  Si  Si106  1  0.425485  0.425485  0.074515  1
  Si  Si107  1  0.425485  0.074515  0.425485  1
  Si  Si108  1  0.074515  0.425485  0.425485  1
