# generated using pymatgen
data_Li2Cr2O7
_symmetry_space_group_name_H-M   'P 1'
_cell_length_a   12.97772052
_cell_length_b   7.63595385
_cell_length_c   6.07895380
_cell_angle_alpha   89.33944788
_cell_angle_beta   100.86717714
_cell_angle_gamma   90.25504263
_symmetry_Int_Tables_number   1
_chemical_formula_structural   Li2Cr2O7
_chemical_formula_sum   'Li8 Cr8 O28'
_cell_volume   591.56379805
_cell_formula_units_Z   4
loop_
 _symmetry_equiv_pos_site_id
 _symmetry_equiv_pos_as_xyz
  1  'x, y, z'
loop_
 _atom_site_type_symbol
 _atom_site_label
 _atom_site_symmetry_multiplicity
 _atom_site_fract_x
 _atom_site_fract_y
 _atom_site_fract_z
 _atom_site_occupancy
  Li  Li1  1  0.160031  0.193084  0.917302  1
  Li  Li2  1  0.155274  0.879458  0.385780  1
  Li  Li3  1  0.322408  0.567052  0.806145  1
  Li  Li4  1  0.416456  0.249780  0.229471  1
  Li  Li5  1  0.583544  0.750220  0.770529  1
  Li  Li6  1  0.677592  0.432948  0.193855  1
  Li  Li7  1  0.844727  0.120542  0.614220  1
  Li  Li8  1  0.839969  0.806916  0.082698  1
  Cr  Cr9  1  0.108395  0.647993  0.882346  1
  Cr  Cr10  1  0.115792  0.275060  0.409247  1
  Cr  Cr11  1  0.383972  0.056386  0.748680  1
  Cr  Cr12  1  0.414727  0.670932  0.301719  1
  Cr  Cr13  1  0.585273  0.329068  0.698281  1
  Cr  Cr14  1  0.616028  0.943614  0.251320  1
  Cr  Cr15  1  0.884208  0.724940  0.590753  1
  Cr  Cr16  1  0.891605  0.352007  0.117654  1
  O  O17  1  0.015280  0.418724  0.273055  1
  O  O18  1  0.075220  0.165470  0.610313  1
  O  O19  1  0.090183  0.766003  0.093572  1
  O  O20  1  0.178278  0.471909  0.962684  1
  O  O21  1  0.168708  0.761787  0.713717  1
  O  O22  1  0.140859  0.133432  0.222766  1
  O  O23  1  0.218047  0.390629  0.513509  1
  O  O24  1  0.291704  0.997128  0.545591  1
  O  O25  1  0.328252  0.145443  0.944776  1
  O  O26  1  0.322343  0.802646  0.190714  1
  O  O27  1  0.392943  0.598185  0.541346  1
  O  O28  1  0.453691  0.882393  0.835962  1
  O  O29  1  0.461100  0.212557  0.625991  1
  O  O30  1  0.414577  0.506175  0.124740  1
  O  O31  1  0.585423  0.493825  0.875260  1
  O  O32  1  0.538900  0.787443  0.374009  1
  O  O33  1  0.546309  0.117607  0.164038  1
  O  O34  1  0.607057  0.401815  0.458654  1
  O  O35  1  0.677657  0.197354  0.809286  1
  O  O36  1  0.671748  0.854557  0.055224  1
  O  O37  1  0.708296  0.002872  0.454409  1
  O  O38  1  0.781953  0.609371  0.486491  1
  O  O39  1  0.859141  0.866568  0.777234  1
  O  O40  1  0.831292  0.238213  0.286283  1
  O  O41  1  0.821722  0.528091  0.037316  1
  O  O42  1  0.909817  0.233997  0.906428  1
  O  O43  1  0.924780  0.834530  0.389687  1
  O  O44  1  0.984720  0.581276  0.726945  1
