# generated using pymatgen
data_Li8Cr2O9
_symmetry_space_group_name_H-M   'P 1'
_cell_length_a   14.74196842
_cell_length_b   8.67394588
_cell_length_c   5.73663757
_cell_angle_alpha   70.44694410
_cell_angle_beta   78.83040465
_cell_angle_gamma   85.52130203
_symmetry_Int_Tables_number   1
_chemical_formula_structural   Li8Cr2O9
_chemical_formula_sum   'Li32 Cr8 O36'
_cell_volume   678.08415772
_cell_formula_units_Z   4
loop_
 _symmetry_equiv_pos_site_id
 _symmetry_equiv_pos_as_xyz
  1  'x, y, z'
loop_
 _atom_site_type_symbol
 _atom_site_label
 _atom_site_symmetry_multiplicity
 _atom_site_fract_x
 _atom_site_fract_y
 _atom_site_fract_z
 _atom_site_occupancy
  Li  Li1  1  0.033230  0.118185  0.775468  1
  Li  Li2  1  0.053562  0.632718  0.545428  1
  Li  Li3  1  0.044884  0.630880  0.033529  1
  Li  Li4  1  0.042749  0.122743  0.316130  1
  Li  Li5  1  0.157662  0.412607  0.848670  1
  Li  Li6  1  0.153014  0.848202  0.128866  1
  Li  Li7  1  0.239794  0.629889  0.965710  1
  Li  Li8  1  0.241244  0.631085  0.424147  1
  Li  Li9  1  0.255109  0.118268  0.670100  1
  Li  Li10  1  0.255938  0.115878  0.217176  1
  Li  Li11  1  0.341663  0.339680  0.787636  1
  Li  Li12  1  0.350351  0.896367  0.507875  1
  Li  Li13  1  0.456723  0.629908  0.858532  1
  Li  Li14  1  0.458739  0.120880  0.589743  1
  Li  Li15  1  0.470141  0.623994  0.308243  1
  Li  Li16  1  0.547494  0.882100  0.911990  1
  Li  Li17  1  0.452506  0.117900  0.088010  1
  Li  Li18  1  0.529859  0.376006  0.691757  1
  Li  Li19  1  0.541261  0.879120  0.410257  1
  Li  Li20  1  0.543277  0.370092  0.141468  1
  Li  Li21  1  0.649649  0.103633  0.492125  1
  Li  Li22  1  0.658337  0.660320  0.212364  1
  Li  Li23  1  0.744062  0.884122  0.782824  1
  Li  Li24  1  0.744891  0.881732  0.329900  1
  Li  Li25  1  0.758756  0.368915  0.575853  1
  Li  Li26  1  0.760206  0.370111  0.034290  1
  Li  Li27  1  0.846986  0.151798  0.871134  1
  Li  Li28  1  0.842338  0.587393  0.151330  1
  Li  Li29  1  0.957251  0.877257  0.683870  1
  Li  Li30  1  0.955116  0.369120  0.966471  1
  Li  Li31  1  0.946438  0.367282  0.454572  1
  Li  Li32  1  0.966770  0.881815  0.224532  1
  Cr  Cr33  1  0.149245  0.874811  0.622835  1
  Cr  Cr34  1  0.139660  0.376590  0.371077  1
  Cr  Cr35  1  0.356283  0.871100  0.021620  1
  Cr  Cr36  1  0.353687  0.357710  0.277968  1
  Cr  Cr37  1  0.646313  0.642290  0.722032  1
  Cr  Cr38  1  0.643717  0.128900  0.978380  1
  Cr  Cr39  1  0.860340  0.623410  0.628923  1
  Cr  Cr40  1  0.850755  0.125189  0.377165  1
  O  O41  1  0.059917  0.881530  0.889342  1
  O  O42  1  0.066456  0.881707  0.416599  1
  O  O43  1  0.068682  0.356792  0.660461  1
  O  O44  1  0.062505  0.367043  0.171760  1
  O  O45  1  0.153873  0.649080  0.728871  1
  O  O46  1  0.139854  0.598757  0.259072  1
  O  O47  1  0.151382  0.120715  0.490115  1
  O  O48  1  0.245871  0.875938  0.808443  1
  O  O49  1  0.251150  0.873757  0.325541  1
  O  O50  1  0.253651  0.379812  0.536564  1
  O  O51  1  0.248390  0.374081  0.101644  1
  O  O52  1  0.341668  0.090627  0.914006  1
  O  O53  1  0.345342  0.648966  0.130597  1
  O  O54  1  0.358720  0.147005  0.378205  1
  O  O55  1  0.440565  0.870510  0.740031  1
  O  O56  1  0.429101  0.391891  0.977006  1
  O  O57  1  0.443407  0.864990  0.210579  1
  O  O58  1  0.436835  0.387176  0.454346  1
  O  O59  1  0.563165  0.612824  0.545654  1
  O  O60  1  0.556593  0.135010  0.789421  1
  O  O61  1  0.570899  0.608109  0.022994  1
  O  O62  1  0.559435  0.129490  0.259969  1
  O  O63  1  0.641280  0.852995  0.621795  1
  O  O64  1  0.654658  0.351034  0.869403  1
  O  O65  1  0.658332  0.909373  0.085994  1
  O  O66  1  0.751610  0.625919  0.898356  1
  O  O67  1  0.746349  0.620188  0.463436  1
  O  O68  1  0.748850  0.126243  0.674459  1
  O  O69  1  0.754129  0.124062  0.191557  1
  O  O70  1  0.848618  0.879285  0.509885  1
  O  O71  1  0.860146  0.401243  0.740928  1
  O  O72  1  0.846127  0.350920  0.271129  1
  O  O73  1  0.937495  0.632957  0.828240  1
  O  O74  1  0.931318  0.643208  0.339539  1
  O  O75  1  0.933544  0.118293  0.583401  1
  O  O76  1  0.940083  0.118470  0.110658  1
