# generated using pymatgen
data_Li3CrO4
_symmetry_space_group_name_H-M   'P 1'
_cell_length_a   4.94681126
_cell_length_b   10.09786485
_cell_length_c   9.66734669
_cell_angle_alpha   16.78737738
_cell_angle_beta   29.30002751
_cell_angle_gamma   33.39386746
_symmetry_Int_Tables_number   1
_chemical_formula_structural   Li3CrO4
_chemical_formula_sum   'Li3 Cr1 O4'
_cell_volume   68.25579790
_cell_formula_units_Z   1
loop_
 _symmetry_equiv_pos_site_id
 _symmetry_equiv_pos_as_xyz
  1  'x, y, z'
loop_
 _atom_site_type_symbol
 _atom_site_label
 _atom_site_symmetry_multiplicity
 _atom_site_fract_x
 _atom_site_fract_y
 _atom_site_fract_z
 _atom_site_occupancy
  Li  Li1  1  0.000016  0.999995  0.999991  1
  Li  Li2  1  0.999997  0.499995  0.000005  1
  Li  Li3  1  0.499992  0.999995  0.500018  1
  Cr  Cr4  1  0.499973  0.500040  0.499968  1
  O  O5  1  0.273666  0.999973  0.226792  1
  O  O6  1  0.172425  0.499953  0.275847  1
  O  O7  1  0.726345  0.000018  0.773215  1
  O  O8  1  0.827585  0.500033  0.724165  1
