# generated using pymatgen
data_LiCr3O4
_symmetry_space_group_name_H-M   'P 1'
_cell_length_a   5.91016580
_cell_length_b   3.17624091
_cell_length_c   5.91636804
_cell_angle_alpha   63.68615168
_cell_angle_beta   90.16067803
_cell_angle_gamma   116.41886471
_symmetry_Int_Tables_number   1
_chemical_formula_structural   LiCr3O4
_chemical_formula_sum   'Li1 Cr3 O4'
_cell_volume   86.50291600
_cell_formula_units_Z   1
loop_
 _symmetry_equiv_pos_site_id
 _symmetry_equiv_pos_as_xyz
  1  'x, y, z'
loop_
 _atom_site_type_symbol
 _atom_site_label
 _atom_site_symmetry_multiplicity
 _atom_site_fract_x
 _atom_site_fract_y
 _atom_site_fract_z
 _atom_site_occupancy
  Li  Li1  1  0.000285  0.000921  0.499880  1
  Cr  Cr2  1  0.000509  0.000815  0.999602  1
  Cr  Cr3  1  0.499706  0.000455  0.999511  1
  Cr  Cr4  1  0.499783  0.000097  0.500129  1
  O  O5  1  0.288475  0.138263  0.211357  1
  O  O6  1  0.744697  0.002750  0.243560  1
  O  O7  1  0.255484  0.998444  0.755953  1
  O  O8  1  0.711637  0.862748  0.788075  1
