# generated using pymatgen
data_Li2Cr2O7
_symmetry_space_group_name_H-M   'P 1'
_cell_length_a   7.36213381
_cell_length_b   7.22374666
_cell_length_c   6.53780683
_cell_angle_alpha   109.15766143
_cell_angle_beta   90.10748220
_cell_angle_gamma   116.14463069
_symmetry_Int_Tables_number   1
_chemical_formula_structural   Li2Cr2O7
_chemical_formula_sum   'Li4 Cr4 O14'
_cell_volume   290.40264781
_cell_formula_units_Z   2
loop_
 _symmetry_equiv_pos_site_id
 _symmetry_equiv_pos_as_xyz
  1  'x, y, z'
loop_
 _atom_site_type_symbol
 _atom_site_label
 _atom_site_symmetry_multiplicity
 _atom_site_fract_x
 _atom_site_fract_y
 _atom_site_fract_z
 _atom_site_occupancy
  Li  Li1  1  0.171562  0.057757  0.297927  1
  Li  Li2  1  0.300177  0.572559  0.704529  1
  Li  Li3  1  0.699823  0.427441  0.295471  1
  Li  Li4  1  0.828438  0.942243  0.702073  1
  Cr  Cr5  1  0.172399  0.491650  0.216264  1
  Cr  Cr6  1  0.614713  0.901459  0.201471  1
  Cr  Cr7  1  0.385287  0.098541  0.798529  1
  Cr  Cr8  1  0.827601  0.508350  0.783736  1
  O  O9  1  0.050433  0.621035  0.350197  1
  O  O10  1  0.013482  0.281994  0.005898  1
  O  O11  1  0.372769  0.655862  0.096698  1
  O  O12  1  0.266194  0.406176  0.377651  1
  O  O13  1  0.419639  0.879783  0.685441  1
  O  O14  1  0.237248  0.118971  0.626725  1
  O  O15  1  0.283674  0.085807  0.016606  1
  O  O16  1  0.716326  0.914193  0.983394  1
  O  O17  1  0.762752  0.881029  0.373275  1
  O  O18  1  0.580361  0.120217  0.314559  1
  O  O19  1  0.733806  0.593824  0.622349  1
  O  O20  1  0.627231  0.344138  0.903302  1
  O  O21  1  0.986518  0.718006  0.994102  1
  O  O22  1  0.949567  0.378965  0.649803  1
