# generated using pymatgen
data_Li17Cr2O12
_symmetry_space_group_name_H-M   'P 1'
_cell_length_a   5.93237874
_cell_length_b   5.47705082
_cell_length_c   8.07882794
_cell_angle_alpha   89.97045537
_cell_angle_beta   83.35321149
_cell_angle_gamma   90.29982886
_symmetry_Int_Tables_number   1
_chemical_formula_structural   Li17Cr2O12
_chemical_formula_sum   'Li17 Cr2 O12'
_cell_volume   260.72870288
_cell_formula_units_Z   1
loop_
 _symmetry_equiv_pos_site_id
 _symmetry_equiv_pos_as_xyz
  1  'x, y, z'
loop_
 _atom_site_type_symbol
 _atom_site_label
 _atom_site_symmetry_multiplicity
 _atom_site_fract_x
 _atom_site_fract_y
 _atom_site_fract_z
 _atom_site_occupancy
  Li  Li1  1  0.320854  0.994243  0.158568  1
  Li  Li2  1  0.729604  0.864722  0.622077  1
  Li  Li3  1  0.421852  0.823078  0.920913  1
  Li  Li4  1  0.043429  0.797608  0.301332  1
  Li  Li5  1  0.085346  0.670485  0.571269  1
  Li  Li6  1  0.458962  0.654440  0.210328  1
  Li  Li7  1  0.776741  0.646338  0.871081  1
  Li  Li8  1  0.174679  0.486906  0.842952  1
  Li  Li9  1  0.830871  0.514361  0.148919  1
  Li  Li10  1  0.217536  0.373852  0.124657  1
  Li  Li11  1  0.914319  0.328676  0.429876  1
  Li  Li12  1  0.558560  0.309007  0.795558  1
  Li  Li13  1  0.938246  0.196551  0.707198  1
  Li  Li14  1  0.606808  0.188357  0.056570  1
  Li  Li15  1  0.263116  0.145082  0.398182  1
  Li  Li16  1  0.316987  0.999524  0.663346  1
  Li  Li17  1  0.672531  0.007595  0.337798  1
  Cr  Cr18  1  0.500997  0.497325  0.504173  1
  Cr  Cr19  1  0.995602  0.002171  0.996475  1
  O  O20  1  0.998472  0.861733  0.760729  1
  O  O21  1  0.677104  0.843562  0.072481  1
  O  O22  1  0.337529  0.801103  0.418572  1
  O  O23  1  0.167891  0.701115  0.078769  1
  O  O24  1  0.793662  0.651183  0.427509  1
  O  O25  1  0.503238  0.643003  0.725015  1
  O  O26  1  0.198335  0.348139  0.578589  1
  O  O27  1  0.495207  0.330645  0.270561  1
  O  O28  1  0.849580  0.321719  0.924256  1
  O  O29  1  0.656775  0.198459  0.574546  1
  O  O30  1  0.318048  0.158719  0.938560  1
  O  O31  1  0.015964  0.137826  0.239448  1
