# generated using pymatgen
data_Li2Cr2O7
_symmetry_space_group_name_H-M   'P 1'
_cell_length_a   13.46957194
_cell_length_b   7.32158743
_cell_length_c   6.10793147
_cell_angle_alpha   90.00000000
_cell_angle_beta   81.48177492
_cell_angle_gamma   90.00000000
_symmetry_Int_Tables_number   1
_chemical_formula_structural   Li2Cr2O7
_chemical_formula_sum   'Li8 Cr8 O28'
_cell_volume   595.71123665
_cell_formula_units_Z   4
loop_
 _symmetry_equiv_pos_site_id
 _symmetry_equiv_pos_as_xyz
  1  'x, y, z'
loop_
 _atom_site_type_symbol
 _atom_site_label
 _atom_site_symmetry_multiplicity
 _atom_site_fract_x
 _atom_site_fract_y
 _atom_site_fract_z
 _atom_site_occupancy
  Li  Li1  1  0.091114  0.141607  0.171026  1
  Li  Li2  1  0.166799  0.874480  0.569020  1
  Li  Li3  1  0.333201  0.374480  0.930980  1
  Li  Li4  1  0.408886  0.641607  0.328974  1
  Li  Li5  1  0.591114  0.358393  0.671026  1
  Li  Li6  1  0.666799  0.625520  0.069020  1
  Li  Li7  1  0.833201  0.125520  0.430980  1
  Li  Li8  1  0.908886  0.858393  0.828974  1
  Cr  Cr9  1  0.097652  0.352723  0.674820  1
  Cr  Cr10  1  0.117347  0.728754  0.079141  1
  Cr  Cr11  1  0.382653  0.228754  0.420859  1
  Cr  Cr12  1  0.402348  0.852723  0.825180  1
  Cr  Cr13  1  0.597652  0.147277  0.174820  1
  Cr  Cr14  1  0.617347  0.771246  0.579141  1
  Cr  Cr15  1  0.882653  0.271246  0.920859  1
  Cr  Cr16  1  0.902348  0.647277  0.325180  1
  O  O17  1  0.025897  0.572572  0.205805  1
  O  O18  1  0.080665  0.200864  0.486483  1
  O  O19  1  0.077943  0.832660  0.865938  1
  O  O20  1  0.162580  0.524155  0.566347  1
  O  O21  1  0.147610  0.260587  0.880070  1
  O  O22  1  0.135569  0.887291  0.262083  1
  O  O23  1  0.218558  0.614832  0.002684  1
  O  O24  1  0.281442  0.114832  0.497316  1
  O  O25  1  0.352390  0.760587  0.619930  1
  O  O26  1  0.337420  0.024155  0.933653  1
  O  O27  1  0.364431  0.387291  0.237917  1
  O  O28  1  0.422057  0.332660  0.634062  1
  O  O29  1  0.419335  0.700864  0.013517  1
  O  O30  1  0.474103  0.072572  0.294195  1
  O  O31  1  0.525897  0.927428  0.705805  1
  O  O32  1  0.580665  0.299136  0.986483  1
  O  O33  1  0.577943  0.667340  0.365938  1
  O  O34  1  0.635569  0.612709  0.762083  1
  O  O35  1  0.662580  0.975845  0.066347  1
  O  O36  1  0.647610  0.239413  0.380070  1
  O  O37  1  0.718558  0.885168  0.502684  1
  O  O38  1  0.781442  0.385168  0.997316  1
  O  O39  1  0.864431  0.112709  0.737917  1
  O  O40  1  0.852390  0.739413  0.119930  1
  O  O41  1  0.837420  0.475845  0.433653  1
  O  O42  1  0.922057  0.167340  0.134062  1
  O  O43  1  0.919335  0.799136  0.513517  1
  O  O44  1  0.974103  0.427428  0.794195  1
