# generated using pymatgen
data_Li2Cr2O7
_symmetry_space_group_name_H-M   'P 1'
_cell_length_a   7.19147771
_cell_length_b   6.50883895
_cell_length_c   6.68787994
_cell_angle_alpha   83.82650686
_cell_angle_beta   96.47814047
_cell_angle_gamma   112.96372204
_symmetry_Int_Tables_number   1
_chemical_formula_structural   Li2Cr2O7
_chemical_formula_sum   'Li4 Cr4 O14'
_cell_volume   285.70748157
_cell_formula_units_Z   2
loop_
 _symmetry_equiv_pos_site_id
 _symmetry_equiv_pos_as_xyz
  1  'x, y, z'
loop_
 _atom_site_type_symbol
 _atom_site_label
 _atom_site_symmetry_multiplicity
 _atom_site_fract_x
 _atom_site_fract_y
 _atom_site_fract_z
 _atom_site_occupancy
  Li  Li1  1  0.368809  0.909080  0.456823  1
  Li  Li2  1  0.221613  0.267598  0.170068  1
  Li  Li3  1  0.880004  0.401920  0.369651  1
  Li  Li4  1  0.809275  0.030145  0.783620  1
  Cr  Cr5  1  0.199173  0.802918  0.957629  1
  Cr  Cr6  1  0.288061  0.361872  0.614424  1
  Cr  Cr7  1  0.780367  0.892347  0.315920  1
  Cr  Cr8  1  0.731943  0.495193  0.878018  1
  O  O9  1  0.189007  0.556597  0.039686  1
  O  O10  1  0.339124  0.893850  0.766769  1
  O  O11  1  0.186726  0.524026  0.485658  1
  O  O12  1  0.127747  0.189021  0.767788  1
  O  O13  1  0.593230  0.763495  0.154907  1
  O  O14  1  0.688841  0.974686  0.504439  1
  O  O15  1  0.515796  0.525338  0.756662  1
  O  O16  1  0.285033  0.976029  0.138509  1
  O  O17  1  0.344229  0.223066  0.455869  1
  O  O18  1  0.690251  0.381382  0.102275  1
  O  O19  1  0.928641  0.757529  0.884371  1
  O  O20  1  0.896436  0.720892  0.401887  1
  O  O21  1  0.791369  0.334100  0.751894  1
  O  O22  1  0.938973  0.126369  0.197879  1
