# generated using pymatgen
data_Li5BO4
_symmetry_space_group_name_H-M   'P 1'
_cell_length_a   8.87783756
_cell_length_b   8.78947761
_cell_length_c   8.50412895
_cell_angle_alpha   90.00000000
_cell_angle_beta   90.00000000
_cell_angle_gamma   90.00000000
_symmetry_Int_Tables_number   1
_chemical_formula_structural   Li5BO4
_chemical_formula_sum   'Li40 B8 O32'
_cell_volume   663.59040129
_cell_formula_units_Z   8
loop_
 _symmetry_equiv_pos_site_id
 _symmetry_equiv_pos_as_xyz
  1  'x, y, z'
loop_
 _atom_site_type_symbol
 _atom_site_label
 _atom_site_symmetry_multiplicity
 _atom_site_fract_x
 _atom_site_fract_y
 _atom_site_fract_z
 _atom_site_occupancy
  Li  Li1  1  0.103997  0.616688  0.149721  1
  Li  Li2  1  0.103997  0.883312  0.649721  1
  Li  Li3  1  0.111666  0.108118  0.840057  1
  Li  Li4  1  0.111666  0.391882  0.340057  1
  Li  Li5  1  0.121127  0.846499  0.361301  1
  Li  Li6  1  0.121127  0.653501  0.861301  1
  Li  Li7  1  0.142499  0.880739  0.085681  1
  Li  Li8  1  0.142499  0.619261  0.585681  1
  Li  Li9  1  0.159748  0.120803  0.401416  1
  Li  Li10  1  0.159748  0.379197  0.901416  1
  Li  Li11  1  0.340252  0.879197  0.901416  1
  Li  Li12  1  0.340252  0.620803  0.401416  1
  Li  Li13  1  0.357501  0.119261  0.585681  1
  Li  Li14  1  0.357501  0.380739  0.085681  1
  Li  Li15  1  0.378873  0.153501  0.861301  1
  Li  Li16  1  0.378873  0.346499  0.361301  1
  Li  Li17  1  0.388334  0.608118  0.840057  1
  Li  Li18  1  0.388334  0.891882  0.340057  1
  Li  Li19  1  0.396003  0.116688  0.149721  1
  Li  Li20  1  0.396003  0.383312  0.649721  1
  Li  Li21  1  0.603997  0.616688  0.350279  1
  Li  Li22  1  0.603997  0.883312  0.850279  1
  Li  Li23  1  0.611666  0.108118  0.659943  1
  Li  Li24  1  0.611666  0.391882  0.159943  1
  Li  Li25  1  0.621127  0.653501  0.638699  1
  Li  Li26  1  0.621127  0.846499  0.138699  1
  Li  Li27  1  0.642499  0.619261  0.914319  1
  Li  Li28  1  0.642499  0.880739  0.414319  1
  Li  Li29  1  0.659748  0.120803  0.098584  1
  Li  Li30  1  0.659748  0.379197  0.598584  1
  Li  Li31  1  0.840252  0.620803  0.098584  1
  Li  Li32  1  0.840252  0.879197  0.598584  1
  Li  Li33  1  0.857501  0.380739  0.414319  1
  Li  Li34  1  0.857501  0.119261  0.914319  1
  Li  Li35  1  0.878873  0.153501  0.638699  1
  Li  Li36  1  0.878873  0.346499  0.138699  1
  Li  Li37  1  0.888334  0.608118  0.659943  1
  Li  Li38  1  0.888334  0.891882  0.159943  1
  Li  Li39  1  0.896003  0.116688  0.350279  1
  Li  Li40  1  0.896003  0.383312  0.850279  1
  B  B41  1  0.133428  0.143113  0.117264  1
  B  B42  1  0.133428  0.356887  0.617264  1
  B  B43  1  0.366573  0.643113  0.117264  1
  B  B44  1  0.366573  0.856887  0.617264  1
  B  B45  1  0.633428  0.143113  0.382736  1
  B  B46  1  0.633428  0.356887  0.882736  1
  B  B47  1  0.866572  0.643113  0.382736  1
  B  B48  1  0.866572  0.856887  0.882736  1
  O  O49  1  0.025779  0.267180  0.516653  1
  O  O50  1  0.025779  0.232820  0.016653  1
  O  O51  1  0.051444  0.029332  0.224840  1
  O  O52  1  0.051444  0.470668  0.724840  1
  O  O53  1  0.241194  0.052313  0.008654  1
  O  O54  1  0.241194  0.447687  0.508654  1
  O  O55  1  0.231422  0.243684  0.218340  1
  O  O56  1  0.231422  0.256316  0.718340  1
  O  O57  1  0.268578  0.743684  0.218340  1
  O  O58  1  0.268578  0.756316  0.718340  1
  O  O59  1  0.258806  0.552313  0.008654  1
  O  O60  1  0.258806  0.947687  0.508654  1
  O  O61  1  0.448556  0.529332  0.224840  1
  O  O62  1  0.448556  0.970668  0.724840  1
  O  O63  1  0.474221  0.767180  0.516653  1
  O  O64  1  0.474221  0.732820  0.016653  1
  O  O65  1  0.525779  0.267180  0.983347  1
  O  O66  1  0.525779  0.232820  0.483347  1
  O  O67  1  0.551444  0.029332  0.275160  1
  O  O68  1  0.551444  0.470668  0.775160  1
  O  O69  1  0.741194  0.052313  0.491346  1
  O  O70  1  0.741194  0.447687  0.991346  1
  O  O71  1  0.731422  0.243684  0.281660  1
  O  O72  1  0.731422  0.256316  0.781660  1
  O  O73  1  0.768578  0.743684  0.281660  1
  O  O74  1  0.768578  0.756316  0.781660  1
  O  O75  1  0.758806  0.552313  0.491346  1
  O  O76  1  0.758806  0.947687  0.991346  1
  O  O77  1  0.948556  0.970668  0.775160  1
  O  O78  1  0.948556  0.529332  0.275160  1
  O  O79  1  0.974221  0.767180  0.983347  1
  O  O80  1  0.974221  0.732820  0.483347  1
