# generated using pymatgen
data_Li17Sn4
_symmetry_space_group_name_H-M   'P 1'
_cell_length_a   13.90427769
_cell_length_b   13.90427758
_cell_length_c   13.90427700
_cell_angle_alpha   59.99999899
_cell_angle_beta   59.99999926
_cell_angle_gamma   60.00000062
_symmetry_Int_Tables_number   1
_chemical_formula_structural   Li17Sn4
_chemical_formula_sum   'Li85 Sn20'
_cell_volume   1900.77307542
_cell_formula_units_Z   5
loop_
 _symmetry_equiv_pos_site_id
 _symmetry_equiv_pos_as_xyz
  1  'x, y, z'
loop_
 _atom_site_type_symbol
 _atom_site_label
 _atom_site_symmetry_multiplicity
 _atom_site_fract_x
 _atom_site_fract_y
 _atom_site_fract_z
 _atom_site_occupancy
  Li  Li1  1  0.576182  0.923818  0.576182  1
  Li  Li2  1  0.581393  0.942450  0.238078  1
  Li  Li3  1  0.923818  0.576182  0.923818  1
  Li  Li4  1  0.171237  0.171237  0.828763  1
  Li  Li5  1  0.992722  0.680860  0.333697  1
  Li  Li6  1  0.444062  0.444062  0.444062  1
  Li  Li7  1  0.925538  0.223387  0.925538  1
  Li  Li8  1  0.992722  0.680860  0.992722  1
  Li  Li9  1  0.481794  0.172735  0.172735  1
  Li  Li10  1  0.481295  0.826684  0.210727  1
  Li  Li11  1  0.079997  0.734406  0.451190  1
  Li  Li12  1  0.582810  0.582810  0.582810  1
  Li  Li13  1  0.734406  0.079997  0.734406  1
  Li  Li14  1  0.172735  0.481794  0.172735  1
  Li  Li15  1  0.680860  0.333697  0.992722  1
  Li  Li16  1  0.171237  0.828763  0.171237  1
  Li  Li17  1  0.481295  0.826684  0.481295  1
  Li  Li18  1  0.826684  0.210727  0.481295  1
  Li  Li19  1  0.481295  0.210727  0.481295  1
  Li  Li20  1  0.696760  0.909719  0.696760  1
  Li  Li21  1  0.582810  0.251570  0.582810  1
  Li  Li22  1  0.828763  0.171237  0.171237  1
  Li  Li23  1  0.481295  0.481295  0.210727  1
  Li  Li24  1  0.576182  0.576182  0.923818  1
  Li  Li25  1  0.680860  0.992722  0.992722  1
  Li  Li26  1  0.172735  0.172735  0.481794  1
  Li  Li27  1  0.238078  0.581393  0.942450  1
  Li  Li28  1  0.318023  0.318023  0.045932  1
  Li  Li29  1  0.333697  0.992722  0.680860  1
  Li  Li30  1  0.581393  0.238078  0.942450  1
  Li  Li31  1  0.581393  0.238078  0.238078  1
  Li  Li32  1  0.223387  0.925538  0.925538  1
  Li  Li33  1  0.318023  0.318023  0.318023  1
  Li  Li34  1  0.734406  0.451190  0.079997  1
  Li  Li35  1  0.696760  0.696760  0.909719  1
  Li  Li36  1  0.172735  0.172735  0.172735  1
  Li  Li37  1  0.828763  0.171237  0.828763  1
  Li  Li38  1  0.992722  0.992722  0.680860  1
  Li  Li39  1  0.923818  0.576182  0.576182  1
  Li  Li40  1  0.576182  0.923818  0.923818  1
  Li  Li41  1  0.925538  0.925538  0.925538  1
  Li  Li42  1  0.667813  0.444062  0.444062  1
  Li  Li43  1  0.079997  0.734406  0.734406  1
  Li  Li44  1  0.238078  0.238078  0.581393  1
  Li  Li45  1  0.582810  0.582810  0.251570  1
  Li  Li46  1  0.942450  0.238078  0.238078  1
  Li  Li47  1  0.734406  0.079997  0.451190  1
  Li  Li48  1  0.992722  0.333697  0.992722  1
  Li  Li49  1  0.826684  0.481295  0.210727  1
  Li  Li50  1  0.444062  0.667813  0.444062  1
  Li  Li51  1  0.826684  0.481295  0.481295  1
  Li  Li52  1  0.696760  0.696760  0.696760  1
  Li  Li53  1  0.444062  0.444062  0.667813  1
  Li  Li54  1  0.251570  0.582810  0.582810  1
  Li  Li55  1  0.238078  0.942450  0.581393  1
  Li  Li56  1  0.333697  0.680860  0.992722  1
  Li  Li57  1  0.451190  0.079997  0.734406  1
  Li  Li58  1  0.333697  0.992722  0.992722  1
  Li  Li59  1  0.079997  0.451190  0.734406  1
  Li  Li60  1  0.210727  0.481295  0.481295  1
  Li  Li61  1  0.451190  0.734406  0.079997  1
  Li  Li62  1  0.481295  0.481295  0.826684  1
  Li  Li63  1  0.734406  0.734406  0.451190  1
  Li  Li64  1  0.238078  0.942450  0.238078  1
  Li  Li65  1  0.481295  0.210727  0.826684  1
  Li  Li66  1  0.923818  0.923818  0.576182  1
  Li  Li67  1  0.925538  0.925538  0.223387  1
  Li  Li68  1  0.942450  0.238078  0.581393  1
  Li  Li69  1  0.318023  0.045932  0.318023  1
  Li  Li70  1  0.451190  0.734406  0.734406  1
  Li  Li71  1  0.734406  0.734406  0.079997  1
  Li  Li72  1  0.171237  0.828763  0.828763  1
  Li  Li73  1  0.680860  0.992722  0.333697  1
  Li  Li74  1  0.238078  0.581393  0.238078  1
  Li  Li75  1  0.909719  0.696760  0.696760  1
  Li  Li76  1  0.000000  0.000000  0.000000  1
  Li  Li77  1  0.210727  0.481295  0.826684  1
  Li  Li78  1  0.992722  0.992722  0.333697  1
  Li  Li79  1  0.210727  0.826684  0.481295  1
  Li  Li80  1  0.828763  0.828763  0.171237  1
  Li  Li81  1  0.045932  0.318023  0.318023  1
  Li  Li82  1  0.734406  0.451190  0.734406  1
  Li  Li83  1  0.992722  0.333697  0.680860  1
  Li  Li84  1  0.238078  0.238078  0.942450  1
  Li  Li85  1  0.942450  0.581393  0.238078  1
  Sn  Sn86  1  0.839881  0.839881  0.839881  1
  Sn  Sn87  1  0.320820  0.679180  0.320820  1
  Sn  Sn88  1  0.839881  0.480358  0.839881  1
  Sn  Sn89  1  0.749028  0.083657  0.083657  1
  Sn  Sn90  1  0.070226  0.070226  0.429774  1
  Sn  Sn91  1  0.070226  0.429774  0.429774  1
  Sn  Sn92  1  0.320820  0.320820  0.679180  1
  Sn  Sn93  1  0.320820  0.679180  0.679180  1
  Sn  Sn94  1  0.429774  0.070226  0.070226  1
  Sn  Sn95  1  0.679180  0.320820  0.679180  1
  Sn  Sn96  1  0.083657  0.749028  0.083657  1
  Sn  Sn97  1  0.083657  0.083657  0.083657  1
  Sn  Sn98  1  0.480358  0.839881  0.839881  1
  Sn  Sn99  1  0.679180  0.320820  0.320820  1
  Sn  Sn100  1  0.679180  0.679180  0.320820  1
  Sn  Sn101  1  0.839881  0.839881  0.480358  1
  Sn  Sn102  1  0.083657  0.083657  0.749028  1
  Sn  Sn103  1  0.429774  0.429774  0.070226  1
  Sn  Sn104  1  0.070226  0.429774  0.070226  1
  Sn  Sn105  1  0.429774  0.070226  0.429774  1
