# generated using pymatgen
data_Li9Cr19O48
_symmetry_space_group_name_H-M   'P 1'
_cell_length_a   5.05405385
_cell_length_b   10.18300039
_cell_length_c   17.29302583
_cell_angle_alpha   89.99226263
_cell_angle_beta   90.17613142
_cell_angle_gamma   90.03301943
_symmetry_Int_Tables_number   1
_chemical_formula_structural   Li9Cr19O48
_chemical_formula_sum   'Li9 Cr19 O48'
_cell_volume   889.98869000
_cell_formula_units_Z   1
loop_
 _symmetry_equiv_pos_site_id
 _symmetry_equiv_pos_as_xyz
  1  'x, y, z'
loop_
 _atom_site_type_symbol
 _atom_site_label
 _atom_site_symmetry_multiplicity
 _atom_site_fract_x
 _atom_site_fract_y
 _atom_site_fract_z
 _atom_site_occupancy
  Li  Li1  1  0.253983  0.420888  0.970351  1
  Li  Li2  1  0.245608  0.751255  0.301485  1
  Li  Li3  1  0.253899  0.246216  0.803298  1
  Li  Li4  1  0.248708  0.580193  0.471314  1
  Li  Li5  1  0.401776  0.749812  0.751621  1
  Li  Li6  1  0.596894  0.250146  0.248559  1
  Li  Li7  1  0.751212  0.080272  0.528797  1
  Li  Li8  1  0.745973  0.752807  0.198277  1
  Li  Li9  1  0.756656  0.247135  0.699845  1
  Cr  Cr10  1  0.096091  0.248813  0.252224  1
  Cr  Cr11  1  0.206427  0.747847  0.941642  1
  Cr  Cr12  1  0.221653  0.026014  0.656113  1
  Cr  Cr13  1  0.219960  0.472897  0.653334  1
  Cr  Cr14  1  0.254445  0.070367  0.973286  1
  Cr  Cr15  1  0.248475  0.930916  0.476221  1
  Cr  Cr16  1  0.273082  0.527076  0.153610  1
  Cr  Cr17  1  0.278023  0.972384  0.155633  1
  Cr  Cr18  1  0.279738  0.251429  0.443737  1
  Cr  Cr19  1  0.720098  0.751128  0.556056  1
  Cr  Cr20  1  0.721296  0.025823  0.844067  1
  Cr  Cr21  1  0.728600  0.474910  0.844537  1
  Cr  Cr22  1  0.751275  0.430818  0.524061  1
  Cr  Cr23  1  0.741795  0.569050  0.024939  1
  Cr  Cr24  1  0.746949  0.927613  0.026438  1
  Cr  Cr25  1  0.778438  0.526246  0.343936  1
  Cr  Cr26  1  0.779925  0.973267  0.346531  1
  Cr  Cr27  1  0.798886  0.248272  0.058079  1
  Cr  Cr28  1  0.902736  0.751053  0.747430  1
  O  O29  1  0.056539  0.242123  0.992650  1
  O  O30  1  0.046182  0.608048  0.368517  1
  O  O31  1  0.057055  0.891005  0.375102  1
  O  O32  1  0.101593  0.624118  0.208053  1
  O  O33  1  0.093710  0.872919  0.209168  1
  O  O34  1  0.098247  0.111367  0.466254  1
  O  O35  1  0.072978  0.380877  0.466775  1
  O  O36  1  0.079764  0.006679  0.073104  1
  O  O37  1  0.080398  0.497444  0.076095  1
  O  O38  1  0.137803  0.749369  0.844251  1
  O  O39  1  0.144996  0.612928  0.701147  1
  O  O40  1  0.144454  0.885342  0.704202  1
  O  O41  1  0.333711  0.117339  0.204535  1
  O  O42  1  0.330231  0.385094  0.202024  1
  O  O43  1  0.330705  0.250885  0.344019  1
  O  O44  1  0.405741  0.990336  0.576272  1
  O  O45  1  0.416308  0.505154  0.577136  1
  O  O46  1  0.413210  0.890915  0.966165  1
  O  O47  1  0.420409  0.620910  0.968716  1
  O  O48  1  0.411984  0.118180  0.710244  1
  O  O49  1  0.394326  0.376964  0.708534  1
  O  O50  1  0.430772  0.107498  0.873812  1
  O  O51  1  0.455268  0.396970  0.867631  1
  O  O52  1  0.446191  0.760304  0.494109  1
  O  O53  1  0.553456  0.260153  0.505670  1
  O  O54  1  0.558351  0.604248  0.126844  1
  O  O55  1  0.559797  0.888801  0.126445  1
  O  O56  1  0.591062  0.619923  0.289757  1
  O  O57  1  0.605078  0.878788  0.290278  1
  O  O58  1  0.583751  0.112462  0.034519  1
  O  O59  1  0.602186  0.384259  0.034951  1
  O  O60  1  0.583503  0.005121  0.422567  1
  O  O61  1  0.594274  0.490589  0.423651  1
  O  O62  1  0.668756  0.750083  0.655539  1
  O  O63  1  0.663776  0.615937  0.795113  1
  O  O64  1  0.664729  0.879983  0.796888  1
  O  O65  1  0.855191  0.113468  0.298785  1
  O  O66  1  0.854673  0.385799  0.295515  1
  O  O67  1  0.859151  0.249298  0.155957  1
  O  O68  1  0.908791  0.512975  0.925592  1
  O  O69  1  0.919174  0.988897  0.928906  1
  O  O70  1  0.901738  0.611263  0.533576  1
  O  O71  1  0.927044  0.880976  0.533358  1
  O  O72  1  0.907927  0.129589  0.795622  1
  O  O73  1  0.913184  0.380803  0.791060  1
  O  O74  1  0.954932  0.108340  0.631499  1
  O  O75  1  0.941308  0.390829  0.625152  1
  O  O76  1  0.922992  0.749996  0.008815  1
