# generated using pymatgen
data_Li22Pb5
_symmetry_space_group_name_H-M   'P 1'
_cell_length_a   14.16693744
_cell_length_b   14.16693674
_cell_length_c   14.16693689
_cell_angle_alpha   59.99999962
_cell_angle_beta   60.00000126
_cell_angle_gamma   59.99999922
_symmetry_Int_Tables_number   1
_chemical_formula_structural   Li22Pb5
_chemical_formula_sum   'Li88 Pb20'
_cell_volume   2010.54080746
_cell_formula_units_Z   4
loop_
 _symmetry_equiv_pos_site_id
 _symmetry_equiv_pos_as_xyz
  1  'x, y, z'
loop_
 _atom_site_type_symbol
 _atom_site_label
 _atom_site_symmetry_multiplicity
 _atom_site_fract_x
 _atom_site_fract_y
 _atom_site_fract_z
 _atom_site_occupancy
  Li  Li1  1  0.020178  0.326607  0.326607  1
  Li  Li2  1  0.315772  0.008109  0.008109  1
  Li  Li3  1  0.827995  0.172005  0.827995  1
  Li  Li4  1  0.074366  0.753861  0.753861  1
  Li  Li5  1  0.499879  0.166707  0.166707  1
  Li  Li6  1  0.172005  0.827995  0.172005  1
  Li  Li7  1  0.753861  0.753861  0.417911  1
  Li  Li8  1  0.074366  0.417911  0.753861  1
  Li  Li9  1  0.420702  0.420702  0.737893  1
  Li  Li10  1  0.417911  0.753861  0.753861  1
  Li  Li11  1  0.256222  0.924487  0.563070  1
  Li  Li12  1  0.581553  0.581553  0.581553  1
  Li  Li13  1  0.581553  0.255340  0.581553  1
  Li  Li14  1  0.753861  0.074366  0.417911  1
  Li  Li15  1  0.826066  0.521803  0.826066  1
  Li  Li16  1  0.008109  0.315772  0.668010  1
  Li  Li17  1  0.668010  0.008109  0.008109  1
  Li  Li18  1  0.920521  0.579479  0.579479  1
  Li  Li19  1  0.172005  0.827995  0.827995  1
  Li  Li20  1  0.924487  0.256222  0.563070  1
  Li  Li21  1  0.506083  0.171111  0.816724  1
  Li  Li22  1  0.315772  0.668010  0.008109  1
  Li  Li23  1  0.315772  0.008109  0.668010  1
  Li  Li24  1  0.521803  0.826066  0.826066  1
  Li  Li25  1  0.827995  0.827995  0.172005  1
  Li  Li26  1  0.008109  0.008109  0.315772  1
  Li  Li27  1  0.008109  0.315772  0.008109  1
  Li  Li28  1  0.256222  0.563070  0.256222  1
  Li  Li29  1  0.924487  0.563070  0.256222  1
  Li  Li30  1  0.920521  0.579479  0.920521  1
  Li  Li31  1  0.753861  0.753861  0.074366  1
  Li  Li32  1  0.816724  0.506083  0.506083  1
  Li  Li33  1  0.256222  0.924487  0.256222  1
  Li  Li34  1  0.579479  0.579479  0.920521  1
  Li  Li35  1  0.074125  0.074125  0.777625  1
  Li  Li36  1  0.753861  0.417911  0.074366  1
  Li  Li37  1  0.074125  0.777625  0.074125  1
  Li  Li38  1  0.420702  0.737893  0.420702  1
  Li  Li39  1  0.166707  0.499879  0.166707  1
  Li  Li40  1  0.563070  0.256222  0.256222  1
  Li  Li41  1  0.250000  0.250000  0.250000  1
  Li  Li42  1  0.008109  0.008109  0.668010  1
  Li  Li43  1  0.816724  0.506083  0.171111  1
  Li  Li44  1  0.326607  0.020178  0.326607  1
  Li  Li45  1  0.171111  0.506083  0.816724  1
  Li  Li46  1  0.563070  0.924487  0.256222  1
  Li  Li47  1  0.737893  0.420702  0.420702  1
  Li  Li48  1  0.816724  0.171111  0.506083  1
  Li  Li49  1  0.506083  0.506083  0.816724  1
  Li  Li50  1  0.326607  0.326607  0.020178  1
  Li  Li51  1  0.256222  0.256222  0.563070  1
  Li  Li52  1  0.826066  0.826066  0.521803  1
  Li  Li53  1  0.920521  0.920521  0.579479  1
  Li  Li54  1  0.166707  0.166707  0.166707  1
  Li  Li55  1  0.166707  0.166707  0.499879  1
  Li  Li56  1  0.924487  0.256222  0.256222  1
  Li  Li57  1  0.827995  0.172005  0.172005  1
  Li  Li58  1  0.506083  0.816724  0.506083  1
  Li  Li59  1  0.579479  0.920521  0.579479  1
  Li  Li60  1  0.826066  0.826066  0.826066  1
  Li  Li61  1  0.172005  0.172005  0.827995  1
  Li  Li62  1  0.563070  0.256222  0.924487  1
  Li  Li63  1  0.777625  0.074125  0.074125  1
  Li  Li64  1  0.417911  0.753861  0.074366  1
  Li  Li65  1  0.500000  0.500000  0.500000  1
  Li  Li66  1  0.000000  0.000000  0.000000  1
  Li  Li67  1  0.579479  0.920521  0.920521  1
  Li  Li68  1  0.420702  0.420702  0.420702  1
  Li  Li69  1  0.074366  0.753861  0.417911  1
  Li  Li70  1  0.171111  0.506083  0.506083  1
  Li  Li71  1  0.008109  0.668010  0.008109  1
  Li  Li72  1  0.326607  0.326607  0.326607  1
  Li  Li73  1  0.668010  0.008109  0.315772  1
  Li  Li74  1  0.753861  0.074366  0.753861  1
  Li  Li75  1  0.506083  0.506083  0.171111  1
  Li  Li76  1  0.753861  0.417911  0.753861  1
  Li  Li77  1  0.008109  0.668010  0.315772  1
  Li  Li78  1  0.171111  0.816724  0.506083  1
  Li  Li79  1  0.256222  0.256222  0.924487  1
  Li  Li80  1  0.506083  0.171111  0.506083  1
  Li  Li81  1  0.256222  0.563070  0.924487  1
  Li  Li82  1  0.417911  0.074366  0.753861  1
  Li  Li83  1  0.750000  0.750000  0.750000  1
  Li  Li84  1  0.255340  0.581553  0.581553  1
  Li  Li85  1  0.668010  0.315772  0.008109  1
  Li  Li86  1  0.506083  0.816724  0.171111  1
  Li  Li87  1  0.581553  0.581553  0.255340  1
  Li  Li88  1  0.074125  0.074125  0.074125  1
  Pb  Pb89  1  0.911851  0.911851  0.911851  1
  Pb  Pb90  1  0.675764  0.675764  0.324236  1
  Pb  Pb91  1  0.666413  0.666413  0.666413  1
  Pb  Pb92  1  0.675764  0.324236  0.675764  1
  Pb  Pb93  1  0.000762  0.666413  0.666413  1
  Pb  Pb94  1  0.074885  0.425115  0.425115  1
  Pb  Pb95  1  0.911851  0.911851  0.264448  1
  Pb  Pb96  1  0.425115  0.425115  0.074885  1
  Pb  Pb97  1  0.324236  0.675764  0.324236  1
  Pb  Pb98  1  0.425115  0.074885  0.425115  1
  Pb  Pb99  1  0.666413  0.666413  0.000762  1
  Pb  Pb100  1  0.324236  0.675764  0.675764  1
  Pb  Pb101  1  0.074885  0.425115  0.074885  1
  Pb  Pb102  1  0.324236  0.324236  0.675764  1
  Pb  Pb103  1  0.074885  0.074885  0.425115  1
  Pb  Pb104  1  0.675764  0.324236  0.324236  1
  Pb  Pb105  1  0.425115  0.074885  0.074885  1
  Pb  Pb106  1  0.264448  0.911851  0.911851  1
  Pb  Pb107  1  0.666413  0.000762  0.666413  1
  Pb  Pb108  1  0.911851  0.264448  0.911851  1
