# generated using pymatgen
data_Li17Pb4
_symmetry_space_group_name_H-M   'P 1'
_cell_length_a   14.10542643
_cell_length_b   14.10542619
_cell_length_c   14.10542676
_cell_angle_alpha   60.00000106
_cell_angle_beta   60.00000162
_cell_angle_gamma   60.00000190
_symmetry_Int_Tables_number   1
_chemical_formula_structural   Li17Pb4
_chemical_formula_sum   'Li85 Pb20'
_cell_volume   1984.46608205
_cell_formula_units_Z   5
loop_
 _symmetry_equiv_pos_site_id
 _symmetry_equiv_pos_as_xyz
  1  'x, y, z'
loop_
 _atom_site_type_symbol
 _atom_site_label
 _atom_site_symmetry_multiplicity
 _atom_site_fract_x
 _atom_site_fract_y
 _atom_site_fract_z
 _atom_site_occupancy
  Li  Li1  1  0.433778  0.698666  0.433778  1
  Li  Li2  1  0.578427  0.578427  0.264719  1
  Li  Li3  1  0.168988  0.511092  0.808828  1
  Li  Li4  1  0.269565  0.922429  0.538440  1
  Li  Li5  1  0.016862  0.670212  0.016862  1
  Li  Li6  1  0.922429  0.538440  0.269565  1
  Li  Li7  1  0.578427  0.264719  0.578427  1
  Li  Li8  1  0.068960  0.757366  0.416309  1
  Li  Li9  1  0.053250  0.053250  0.840251  1
  Li  Li10  1  0.416309  0.068960  0.757366  1
  Li  Li11  1  0.053250  0.840251  0.053250  1
  Li  Li12  1  0.808828  0.511092  0.511092  1
  Li  Li13  1  0.433778  0.433778  0.433778  1
  Li  Li14  1  0.824588  0.824588  0.824588  1
  Li  Li15  1  0.068960  0.757366  0.757366  1
  Li  Li16  1  0.577946  0.922054  0.577946  1
  Li  Li17  1  0.068960  0.416309  0.757366  1
  Li  Li18  1  0.168988  0.808828  0.511092  1
  Li  Li19  1  0.269565  0.538440  0.922429  1
  Li  Li20  1  0.670212  0.296063  0.016862  1
  Li  Li21  1  0.577946  0.922054  0.922054  1
  Li  Li22  1  0.825711  0.825711  0.174289  1
  Li  Li23  1  0.526237  0.824588  0.824588  1
  Li  Li24  1  0.825711  0.174289  0.174289  1
  Li  Li25  1  0.296063  0.016862  0.670212  1
  Li  Li26  1  0.578427  0.578427  0.578427  1
  Li  Li27  1  0.840251  0.053250  0.053250  1
  Li  Li28  1  0.511092  0.808828  0.511092  1
  Li  Li29  1  0.053250  0.053250  0.053250  1
  Li  Li30  1  0.416309  0.757366  0.757366  1
  Li  Li31  1  0.166448  0.166448  0.166448  1
  Li  Li32  1  0.174289  0.825711  0.174289  1
  Li  Li33  1  0.296063  0.016862  0.016862  1
  Li  Li34  1  0.824588  0.824588  0.526237  1
  Li  Li35  1  0.757366  0.068960  0.757366  1
  Li  Li36  1  0.016862  0.016862  0.296063  1
  Li  Li37  1  0.166448  0.500655  0.166448  1
  Li  Li38  1  0.511092  0.511092  0.808828  1
  Li  Li39  1  0.698666  0.433778  0.433778  1
  Li  Li40  1  0.922429  0.269565  0.269565  1
  Li  Li41  1  0.824588  0.526237  0.824588  1
  Li  Li42  1  0.269565  0.922429  0.269565  1
  Li  Li43  1  0.166448  0.166448  0.500655  1
  Li  Li44  1  0.016862  0.296063  0.670212  1
  Li  Li45  1  0.168988  0.511092  0.511092  1
  Li  Li46  1  0.757366  0.416309  0.068960  1
  Li  Li47  1  0.016862  0.296063  0.016862  1
  Li  Li48  1  0.269565  0.538440  0.269565  1
  Li  Li49  1  0.757366  0.068960  0.416309  1
  Li  Li50  1  0.670212  0.016862  0.016862  1
  Li  Li51  1  0.305488  0.305488  0.305488  1
  Li  Li52  1  0.511092  0.808828  0.168988  1
  Li  Li53  1  0.538440  0.269565  0.922429  1
  Li  Li54  1  0.016862  0.016862  0.670212  1
  Li  Li55  1  0.922054  0.577946  0.577946  1
  Li  Li56  1  0.511092  0.511092  0.168988  1
  Li  Li57  1  0.757366  0.757366  0.068960  1
  Li  Li58  1  0.264719  0.578427  0.578427  1
  Li  Li59  1  0.500655  0.166448  0.166448  1
  Li  Li60  1  0.433778  0.433778  0.698666  1
  Li  Li61  1  0.808828  0.511092  0.168988  1
  Li  Li62  1  0.922054  0.577946  0.922054  1
  Li  Li63  1  0.296063  0.670212  0.016862  1
  Li  Li64  1  0.305488  0.305488  0.083537  1
  Li  Li65  1  0.757366  0.416309  0.757366  1
  Li  Li66  1  0.511092  0.168988  0.808828  1
  Li  Li67  1  0.670212  0.016862  0.296063  1
  Li  Li68  1  0.577946  0.577946  0.922054  1
  Li  Li69  1  0.083537  0.305488  0.305488  1
  Li  Li70  1  0.538440  0.269565  0.269565  1
  Li  Li71  1  0.016862  0.670212  0.296063  1
  Li  Li72  1  0.808828  0.168988  0.511092  1
  Li  Li73  1  0.750000  0.750000  0.750000  1
  Li  Li74  1  0.174289  0.825711  0.825711  1
  Li  Li75  1  0.174289  0.174289  0.825711  1
  Li  Li76  1  0.416309  0.757366  0.068960  1
  Li  Li77  1  0.825711  0.174289  0.825711  1
  Li  Li78  1  0.922054  0.922054  0.577946  1
  Li  Li79  1  0.757366  0.757366  0.416309  1
  Li  Li80  1  0.922429  0.269565  0.538440  1
  Li  Li81  1  0.538440  0.922429  0.269565  1
  Li  Li82  1  0.305488  0.083537  0.305488  1
  Li  Li83  1  0.269565  0.269565  0.538440  1
  Li  Li84  1  0.511092  0.168988  0.511092  1
  Li  Li85  1  0.269565  0.269565  0.922429  1
  Pb  Pb86  1  0.000575  0.666475  0.666475  1
  Pb  Pb87  1  0.679182  0.320818  0.320818  1
  Pb  Pb88  1  0.666475  0.666475  0.666475  1
  Pb  Pb89  1  0.320818  0.320818  0.679182  1
  Pb  Pb90  1  0.666475  0.666475  0.000575  1
  Pb  Pb91  1  0.909863  0.909863  0.270412  1
  Pb  Pb92  1  0.320818  0.679182  0.320818  1
  Pb  Pb93  1  0.666475  0.000575  0.666475  1
  Pb  Pb94  1  0.679182  0.320818  0.679182  1
  Pb  Pb95  1  0.070681  0.429319  0.429319  1
  Pb  Pb96  1  0.070681  0.429319  0.070681  1
  Pb  Pb97  1  0.320818  0.679182  0.679182  1
  Pb  Pb98  1  0.429319  0.070681  0.429319  1
  Pb  Pb99  1  0.679182  0.679182  0.320818  1
  Pb  Pb100  1  0.909863  0.909863  0.909863  1
  Pb  Pb101  1  0.270412  0.909863  0.909863  1
  Pb  Pb102  1  0.070681  0.070681  0.429319  1
  Pb  Pb103  1  0.909863  0.270412  0.909863  1
  Pb  Pb104  1  0.429319  0.070681  0.070681  1
  Pb  Pb105  1  0.429319  0.429319  0.070681  1
