# generated using pymatgen
data_Li2CrO4
_symmetry_space_group_name_H-M   'P 1'
_cell_length_a   8.80846016
_cell_length_b   8.80846016
_cell_length_c   8.80846016
_cell_angle_alpha   107.82964686
_cell_angle_beta   107.82964678
_cell_angle_gamma   107.82964683
_symmetry_Int_Tables_number   1
_chemical_formula_structural   Li2CrO4
_chemical_formula_sum   'Li12 Cr6 O24'
_cell_volume   555.79042165
_cell_formula_units_Z   6
loop_
 _symmetry_equiv_pos_site_id
 _symmetry_equiv_pos_as_xyz
  1  'x, y, z'
loop_
 _atom_site_type_symbol
 _atom_site_label
 _atom_site_symmetry_multiplicity
 _atom_site_fract_x
 _atom_site_fract_y
 _atom_site_fract_z
 _atom_site_occupancy
  Li  Li1  1  0.887969  0.064070  0.294542  1
  Li  Li2  1  0.064070  0.294542  0.887969  1
  Li  Li3  1  0.294542  0.887969  0.064070  1
  Li  Li4  1  0.112031  0.935930  0.705458  1
  Li  Li5  1  0.935930  0.705458  0.112031  1
  Li  Li6  1  0.705458  0.112031  0.935930  1
  Li  Li7  1  0.623271  0.221366  0.400355  1
  Li  Li8  1  0.778634  0.599645  0.376729  1
  Li  Li9  1  0.599645  0.376729  0.778634  1
  Li  Li10  1  0.376729  0.778634  0.599645  1
  Li  Li11  1  0.221366  0.400355  0.623271  1
  Li  Li12  1  0.400355  0.623271  0.221366  1
  O  O13  1  0.535494  0.863881  0.853341  1
  O  O14  1  0.254290  0.929380  0.568447  1
  O  O15  1  0.568447  0.254290  0.929380  1
  O  O16  1  0.070620  0.431553  0.745710  1
  O  O17  1  0.745710  0.070620  0.431553  1
  O  O18  1  0.929380  0.568447  0.254290  1
  O  O19  1  0.191821  0.525630  0.471399  1
  O  O20  1  0.471399  0.191821  0.525630  1
  O  O21  1  0.525630  0.471399  0.191821  1
  O  O22  1  0.808179  0.474370  0.528601  1
  O  O23  1  0.528601  0.808179  0.474370  1
  O  O24  1  0.474370  0.528601  0.808179  1
  O  O25  1  0.900249  0.234928  0.186214  1
  O  O26  1  0.186214  0.900249  0.234928  1
  O  O27  1  0.234928  0.186214  0.900249  1
  O  O28  1  0.099751  0.765072  0.813786  1
  O  O29  1  0.813786  0.099751  0.765072  1
  O  O30  1  0.765072  0.813786  0.099751  1
  O  O31  1  0.853341  0.535494  0.863881  1
  O  O32  1  0.464506  0.136119  0.146659  1
  O  O33  1  0.136119  0.146659  0.464506  1
  O  O34  1  0.146659  0.464506  0.136119  1
  O  O35  1  0.431553  0.745710  0.070620  1
  O  O36  1  0.863881  0.853341  0.535494  1
  Cr  Cr37  1  0.552930  0.737020  0.958306  1
  Cr  Cr38  1  0.737020  0.958306  0.552930  1
  Cr  Cr39  1  0.958306  0.552930  0.737020  1
  Cr  Cr40  1  0.447070  0.262980  0.041694  1
  Cr  Cr41  1  0.262980  0.041694  0.447070  1
  Cr  Cr42  1  0.041694  0.447070  0.262980  1
