# generated using pymatgen
data_Ba19Li44
_symmetry_space_group_name_H-M   'P 1'
_cell_length_a   16.22708676
_cell_length_b   16.22708647
_cell_length_c   19.76448592
_cell_angle_alpha   114.23695507
_cell_angle_beta   114.23695460
_cell_angle_gamma   89.99999847
_symmetry_Int_Tables_number   1
_chemical_formula_structural   Ba19Li44
_chemical_formula_sum   'Ba38 Li88'
_cell_volume   4237.50899511
_cell_formula_units_Z   2
loop_
 _symmetry_equiv_pos_site_id
 _symmetry_equiv_pos_as_xyz
  1  'x, y, z'
loop_
 _atom_site_type_symbol
 _atom_site_label
 _atom_site_symmetry_multiplicity
 _atom_site_fract_x
 _atom_site_fract_y
 _atom_site_fract_z
 _atom_site_occupancy
  Ba  Ba1  1  0.673899  0.180542  0.649542  1
  Ba  Ba2  1  0.634985  0.950479  0.100542  1
  Ba  Ba3  1  0.246494  0.942065  0.501553  1
  Ba  Ba4  1  0.904222  0.904222  0.808444  1
  Ba  Ba5  1  0.057935  0.744941  0.498447  1
  Ba  Ba6  1  0.154222  0.654222  0.308444  1
  Ba  Ba7  1  0.440512  0.753506  0.498447  1
  Ba  Ba8  1  0.095778  0.095778  0.191556  1
  Ba  Ba9  1  0.935150  0.643957  0.095295  1
  Ba  Ba10  1  0.192065  0.996494  0.001553  1
  Ba  Ba11  1  0.356043  0.839854  0.904705  1
  Ba  Ba12  1  0.719000  0.725642  0.149542  1
  Ba  Ba13  1  0.819458  0.024358  0.350458  1
  Ba  Ba14  1  0.994941  0.807935  0.998447  1
  Ba  Ba15  1  0.975642  0.469000  0.649542  1
  Ba  Ba16  1  0.255059  0.559488  0.501553  1
  Ba  Ba17  1  0.089854  0.106043  0.404705  1
  Ba  Ba18  1  0.615015  0.599937  0.399458  1
  Ba  Ba19  1  0.200479  0.384985  0.600542  1
  Ba  Ba20  1  0.430542  0.423899  0.149542  1
  Ba  Ba21  1  0.701338  0.910146  0.595295  1
  Ba  Ba22  1  0.465557  0.150063  0.100542  1
  Ba  Ba23  1  0.576101  0.281000  0.850458  1
  Ba  Ba24  1  0.160146  0.451338  0.095295  1
  Ba  Ba25  1  0.400063  0.215557  0.600542  1
  Ba  Ba26  1  0.784443  0.799521  0.399458  1
  Ba  Ba27  1  0.049521  0.534443  0.899458  1
  Ba  Ba28  1  0.500000  0.500000  0.000000  1
  Ba  Ba29  1  0.849937  0.365015  0.899458  1
  Ba  Ba30  1  0.274358  0.569458  0.850458  1
  Ba  Ba31  1  0.003506  0.190512  0.998447  1
  Ba  Ba32  1  0.345778  0.845778  0.691556  1
  Ba  Ba33  1  0.548662  0.064850  0.904705  1
  Ba  Ba34  1  0.314850  0.298662  0.404705  1
  Ba  Ba35  1  0.809488  0.005059  0.001553  1
  Ba  Ba36  1  0.750000  0.250000  0.500000  1
  Ba  Ba37  1  0.893957  0.685150  0.595295  1
  Ba  Ba38  1  0.531000  0.326101  0.350458  1
  Li  Li39  1  0.978890  0.836789  0.324620  1
  Li  Li40  1  0.749789  0.469198  0.064193  1
  Li  Li41  1  0.292609  0.046571  0.861970  1
  Li  Li42  1  0.671125  0.375000  0.250000  1
  Li  Li43  1  0.159660  0.993917  0.680058  1
  Li  Li44  1  0.065399  0.319360  0.361970  1
  Li  Li45  1  0.844995  0.064403  0.564193  1
  Li  Li46  1  0.086789  0.728890  0.824620  1
  Li  Li47  1  0.366391  0.648849  0.260723  1
  Li  Li48  1  0.355668  0.101151  0.239277  1
  Li  Li49  1  0.578875  0.875000  0.250000  1
  Li  Li50  1  0.243917  0.909660  0.180058  1
  Li  Li51  1  0.458523  0.468399  0.786505  1
  Li  Li52  1  0.006083  0.479602  0.319942  1
  Li  Li53  1  0.843338  0.544933  0.364579  1
  Li  Li54  1  0.592371  0.619462  0.812056  1
  Li  Li55  1  0.380538  0.780315  0.187944  1
  Li  Li56  1  0.014184  0.989874  0.518537  1
  Li  Li57  1  0.184601  0.707391  0.138030  1
  Li  Li58  1  0.638271  0.006183  0.432055  1
  Li  Li59  1  0.794933  0.593338  0.864579  1
  Li  Li60  1  0.456216  0.743817  0.067945  1
  Li  Li61  1  0.869462  0.342371  0.312056  1
  Li  Li62  1  0.898849  0.116391  0.760723  1
  Li  Li63  1  0.314403  0.594995  0.064193  1
  Li  Li64  1  0.737831  0.095730  0.824620  1
  Li  Li65  1  0.680640  0.703429  0.638030  1
  Li  Li66  1  0.569360  0.815399  0.861970  1
  Li  Li67  1  0.090340  0.063859  0.819942  1
  Li  Li68  1  0.657629  0.557406  0.687944  1
  Li  Li69  1  0.296571  0.042609  0.361970  1
  Li  Li70  1  0.993817  0.206216  0.567945  1
  Li  Li71  1  0.180353  0.156662  0.635421  1
  Li  Li72  1  0.114752  0.875000  0.250000  1
  Li  Li73  1  0.530802  0.685597  0.935807  1
  Li  Li74  1  0.861875  0.644332  0.760723  1
  Li  Li75  1  0.030315  0.130538  0.687944  1
  Li  Li76  1  0.935597  0.280802  0.435807  1
  Li  Li77  1  0.512169  0.021110  0.675380  1
  Li  Li78  1  0.568107  0.077983  0.286505  1
  Li  Li79  1  0.069647  0.271241  0.864579  1
  Li  Li80  1  0.728759  0.205067  0.135421  1
  Li  Li81  1  0.953429  0.430640  0.138030  1
  Li  Li82  1  0.405005  0.250211  0.935807  1
  Li  Li83  1  0.883609  0.138125  0.239277  1
  Li  Li84  1  0.135248  0.375000  0.250000  1
  Li  Li85  1  0.793784  0.425872  0.432055  1
  Li  Li86  1  0.675872  0.543784  0.932055  1
  Li  Li87  1  0.745647  0.760126  0.981463  1
  Li  Li88  1  0.455067  0.478759  0.635421  1
  Li  Li89  1  0.219685  0.192594  0.812056  1
  Li  Li90  1  0.520398  0.686141  0.680058  1
  Li  Li91  1  0.807406  0.407629  0.187944  1
  Li  Li92  1  0.681893  0.541477  0.213495  1
  Li  Li93  1  0.904270  0.913211  0.175380  1
  Li  Li94  1  0.388125  0.633609  0.739277  1
  Li  Li95  1  0.125000  0.864752  0.750000  1
  Li  Li96  1  0.719198  0.499789  0.564193  1
  Li  Li97  1  0.256183  0.388271  0.932055  1
  Li  Li98  1  0.957391  0.934601  0.638030  1
  Li  Li99  1  0.406662  0.930353  0.135421  1
  Li  Li100  1  0.504353  0.528664  0.518537  1
  Li  Li101  1  0.521241  0.819647  0.364579  1
  Li  Li102  1  0.351151  0.105668  0.739277  1
  Li  Li103  1  0.125000  0.328875  0.750000  1
  Li  Li104  1  0.625000  0.421125  0.750000  1
  Li  Li105  1  0.922017  0.281601  0.713495  1
  Li  Li106  1  0.500211  0.155005  0.435807  1
  Li  Li107  1  0.442594  0.969685  0.312056  1
  Li  Li108  1  0.327983  0.318107  0.786505  1
  Li  Li109  1  0.574128  0.361729  0.567945  1
  Li  Li110  1  0.239874  0.764184  0.018537  1
  Li  Li111  1  0.718399  0.208523  0.286505  1
  Li  Li112  1  0.471336  0.985816  0.481463  1
  Li  Li113  1  0.729602  0.756083  0.819942  1
  Li  Li114  1  0.345730  0.487831  0.324620  1
  Li  Li115  1  0.791477  0.431893  0.713495  1
  Li  Li116  1  0.163211  0.654270  0.675380  1
  Li  Li117  1  0.778664  0.254353  0.018537  1
  Li  Li118  1  0.611729  0.324128  0.067945  1
  Li  Li119  1  0.010126  0.495647  0.481463  1
  Li  Li120  1  0.936141  0.270398  0.180058  1
  Li  Li121  1  0.531601  0.672017  0.213495  1
  Li  Li122  1  0.235816  0.221336  0.981463  1
  Li  Li123  1  0.894332  0.611875  0.260723  1
  Li  Li124  1  0.313859  0.840340  0.319942  1
  Li  Li125  1  0.625000  0.885248  0.750000  1
  Li  Li126  1  0.271110  0.262169  0.175380  1
