# generated using pymatgen
data_Li2Cr4O13
_symmetry_space_group_name_H-M   'P 1'
_cell_length_a   8.24122267
_cell_length_b   12.12599673
_cell_length_c   7.82226268
_cell_angle_alpha   94.33950843
_cell_angle_beta   94.02250081
_cell_angle_gamma   109.21063132
_symmetry_Int_Tables_number   1
_chemical_formula_structural   Li2Cr4O13
_chemical_formula_sum   'Li6 Cr12 O39'
_cell_volume   732.29806183
_cell_formula_units_Z   3
loop_
 _symmetry_equiv_pos_site_id
 _symmetry_equiv_pos_as_xyz
  1  'x, y, z'
loop_
 _atom_site_type_symbol
 _atom_site_label
 _atom_site_symmetry_multiplicity
 _atom_site_fract_x
 _atom_site_fract_y
 _atom_site_fract_z
 _atom_site_occupancy
  Li  Li1  1  0.011378  0.637023  0.890328  1
  Li  Li2  1  0.031392  0.379248  0.694819  1
  Li  Li3  1  0.477902  0.980520  0.712165  1
  Li  Li4  1  0.522098  0.019480  0.287835  1
  Li  Li5  1  0.968608  0.620752  0.305181  1
  Li  Li6  1  0.988622  0.362977  0.109672  1
  Cr  Cr7  1  0.148679  0.956174  0.974464  1
  Cr  Cr8  1  0.143035  0.956548  0.371167  1
  Cr  Cr9  1  0.319671  0.649098  0.617203  1
  Cr  Cr10  1  0.330623  0.637393  0.222328  1
  Cr  Cr11  1  0.328152  0.353256  0.419248  1
  Cr  Cr12  1  0.347850  0.372752  0.031899  1
  Cr  Cr13  1  0.652150  0.627248  0.968101  1
  Cr  Cr14  1  0.671848  0.646744  0.580752  1
  Cr  Cr15  1  0.669377  0.362607  0.777672  1
  Cr  Cr16  1  0.680329  0.350902  0.382797  1
  Cr  Cr17  1  0.856965  0.043452  0.628833  1
  Cr  Cr18  1  0.851321  0.043826  0.025536  1
  O  O19  1  0.999414  0.990705  0.147937  1
  O  O20  1  0.080084  0.814832  0.936840  1
  O  O21  1  0.063206  0.815900  0.351123  1
  O  O22  1  0.154208  0.591909  0.725198  1
  O  O23  1  0.276061  0.986300  0.189192  1
  O  O24  1  0.194042  0.619400  0.404641  1
  O  O25  1  0.152534  0.599800  0.090525  1
  O  O26  1  0.193069  0.382509  0.899514  1
  O  O27  1  0.382164  0.789995  0.654698  1
  O  O28  1  0.000000  0.000000  0.500000  1
  O  O29  1  0.220919  0.405701  0.550481  1
  O  O30  1  0.422657  0.774819  0.224419  1
  O  O31  1  0.234459  0.396850  0.222132  1
  O  O32  1  0.243197  0.213828  0.396726  1
  O  O33  1  0.482629  0.606286  0.733263  1
  O  O34  1  0.468656  0.614574  0.441553  1
  O  O35  1  0.683835  0.005368  0.493463  1
  O  O36  1  0.459943  0.573003  0.091729  1
  O  O37  1  0.325598  0.237075  0.021634  1
  O  O38  1  0.680622  0.992909  0.125090  1
  O  O39  1  0.319378  0.007091  0.874910  1
  O  O40  1  0.674402  0.762925  0.978366  1
  O  O41  1  0.540057  0.426997  0.908271  1
  O  O42  1  0.316165  0.994631  0.506537  1
  O  O43  1  0.531344  0.385426  0.558447  1
  O  O44  1  0.517371  0.393714  0.266737  1
  O  O45  1  0.756803  0.786172  0.603274  1
  O  O46  1  0.765541  0.603150  0.777868  1
  O  O47  1  0.577343  0.225181  0.775581  1
  O  O48  1  0.779081  0.594299  0.449519  1
  O  O49  1  0.617836  0.210005  0.345302  1
  O  O50  1  0.806931  0.617491  0.100486  1
  O  O51  1  0.847466  0.400200  0.909475  1
  O  O52  1  0.805958  0.380600  0.595359  1
  O  O53  1  0.723939  0.013700  0.810808  1
  O  O54  1  0.845792  0.408091  0.274802  1
  O  O55  1  0.936794  0.184100  0.648877  1
  O  O56  1  0.919916  0.185168  0.063160  1
  O  O57  1  0.000586  0.009295  0.852063  1
