# generated using pymatgen
data_Li2O2
_symmetry_space_group_name_H-M   'P 1'
_cell_length_a   6.67238742
_cell_length_b   6.67238725
_cell_length_c   7.90047456
_cell_angle_alpha   90.00000000
_cell_angle_beta   90.00000000
_cell_angle_gamma   120.00000086
_symmetry_Int_Tables_number   1
_chemical_formula_structural   Li2O2
_chemical_formula_sum   'Li16 O16'
_cell_volume   304.61150714
_cell_formula_units_Z   8
loop_
 _symmetry_equiv_pos_site_id
 _symmetry_equiv_pos_as_xyz
  1  'x, y, z'
loop_
 _atom_site_type_symbol
 _atom_site_label
 _atom_site_symmetry_multiplicity
 _atom_site_fract_x
 _atom_site_fract_y
 _atom_site_fract_z
 _atom_site_occupancy
  Li  Li1  1  0.166668  0.333337  0.647628  1
  Li  Li2  1  0.666667  0.333333  0.647626  1
  Li  Li3  1  0.500001  0.000002  0.147628  1
  Li  Li4  1  0.166668  0.833332  0.647628  1
  Li  Li5  1  0.166668  0.833332  0.352372  1
  Li  Li6  1  0.500001  0.499999  0.147628  1
  Li  Li7  1  0.999998  0.499999  0.147628  1
  Li  Li8  1  0.000000  0.000000  0.852369  1
  Li  Li9  1  0.666663  0.833332  0.352372  1
  Li  Li10  1  0.500001  0.499999  0.852372  1
  Li  Li11  1  0.000000  0.000000  0.147631  1
  Li  Li12  1  0.166668  0.333337  0.352372  1
  Li  Li13  1  0.666663  0.833332  0.647628  1
  Li  Li14  1  0.500001  0.000002  0.852372  1
  Li  Li15  1  0.999998  0.499999  0.852372  1
  Li  Li16  1  0.666667  0.333333  0.352374  1
  O  O17  1  0.666665  0.833332  0.903862  1
  O  O18  1  0.666667  0.333333  0.096137  1
  O  O19  1  0.166668  0.333335  0.903862  1
  O  O20  1  0.500001  0.000001  0.403862  1
  O  O21  1  0.500001  0.499999  0.403862  1
  O  O22  1  0.000000  0.000000  0.403867  1
  O  O23  1  0.500001  0.499999  0.596138  1
  O  O24  1  0.000000  0.000000  0.596133  1
  O  O25  1  0.500001  0.000001  0.596138  1
  O  O26  1  0.666667  0.333333  0.903863  1
  O  O27  1  0.166668  0.333335  0.096138  1
  O  O28  1  0.666665  0.833332  0.096138  1
  O  O29  1  0.999999  0.499999  0.596138  1
  O  O30  1  0.166668  0.833332  0.903862  1
  O  O31  1  0.999999  0.499999  0.403862  1
  O  O32  1  0.166668  0.833332  0.096138  1
