# generated using pymatgen
data_Li2Cr2O7
_symmetry_space_group_name_H-M   'P 1'
_cell_length_a   6.61427290
_cell_length_b   6.61384593
_cell_length_c   12.45546412
_cell_angle_alpha   90.00069498
_cell_angle_beta   90.00277005
_cell_angle_gamma   89.99446520
_symmetry_Int_Tables_number   1
_chemical_formula_structural   Li2Cr2O7
_chemical_formula_sum   'Li8 Cr8 O28'
_cell_volume   544.87401359
_cell_formula_units_Z   4
loop_
 _symmetry_equiv_pos_site_id
 _symmetry_equiv_pos_as_xyz
  1  'x, y, z'
loop_
 _atom_site_type_symbol
 _atom_site_label
 _atom_site_symmetry_multiplicity
 _atom_site_fract_x
 _atom_site_fract_y
 _atom_site_fract_z
 _atom_site_occupancy
  Li  Li1  1  0.113124  0.647387  0.131770  1
  Li  Li2  1  0.147369  0.386844  0.881767  1
  Li  Li3  1  0.352578  0.886855  0.368239  1
  Li  Li4  1  0.386860  0.147394  0.118238  1
  Li  Li5  1  0.613139  0.852602  0.618221  1
  Li  Li6  1  0.647387  0.113152  0.868246  1
  Li  Li7  1  0.852631  0.613137  0.381741  1
  Li  Li8  1  0.886838  0.352619  0.631723  1
  Cr  Cr9  1  0.093668  0.838398  0.619290  1
  Cr  Cr10  1  0.161638  0.906304  0.880675  1
  Cr  Cr11  1  0.338308  0.406256  0.369270  1
  Cr  Cr12  1  0.406340  0.338304  0.630731  1
  Cr  Cr13  1  0.593704  0.661698  0.130756  1
  Cr  Cr14  1  0.661714  0.593808  0.869273  1
  Cr  Cr15  1  0.838350  0.093670  0.380711  1
  Cr  Cr16  1  0.906289  0.161622  0.119299  1
  O  O17  1  0.039840  0.950904  0.376131  1
  O  O18  1  0.048762  0.349939  0.076335  1
  O  O19  1  0.049103  0.960146  0.123875  1
  O  O20  1  0.132451  0.708319  0.958256  1
  O  O21  1  0.150130  0.548722  0.326340  1
  O  O22  1  0.208335  0.367566  0.708279  1
  O  O23  1  0.192974  0.807039  0.749979  1
  O  O24  1  0.307085  0.307067  0.500005  1
  O  O25  1  0.291681  0.867580  0.541714  1
  O  O26  1  0.349894  0.048769  0.923666  1
  O  O27  1  0.367575  0.208337  0.291725  1
  O  O28  1  0.450872  0.460092  0.126124  1
  O  O29  1  0.451267  0.849863  0.173657  1
  O  O30  1  0.460099  0.450864  0.873875  1
  O  O31  1  0.539903  0.549122  0.373873  1
  O  O32  1  0.548737  0.150147  0.673664  1
  O  O33  1  0.549134  0.539919  0.626124  1
  O  O34  1  0.632424  0.791606  0.791758  1
  O  O35  1  0.650098  0.951227  0.423672  1
  O  O36  1  0.708388  0.132433  0.041734  1
  O  O37  1  0.692936  0.692908  0.000027  1
  O  O38  1  0.807064  0.192918  0.250002  1
  O  O39  1  0.791674  0.632440  0.208299  1
  O  O40  1  0.849882  0.451251  0.826335  1
  O  O41  1  0.867541  0.291678  0.458279  1
  O  O42  1  0.950918  0.039844  0.623875  1
  O  O43  1  0.951237  0.650067  0.576335  1
  O  O44  1  0.960158  0.049080  0.876113  1
