# generated using pymatgen
data_Li2Cr4O13
_symmetry_space_group_name_H-M   'P 1'
_cell_length_a   8.24202243
_cell_length_b   12.24301432
_cell_length_c   7.76145538
_cell_angle_alpha   107.73046675
_cell_angle_beta   94.00735666
_cell_angle_gamma   95.19895393
_symmetry_Int_Tables_number   1
_chemical_formula_structural   Li2Cr4O13
_chemical_formula_sum   'Li6 Cr12 O39'
_cell_volume   738.98296499
_cell_formula_units_Z   3
loop_
 _symmetry_equiv_pos_site_id
 _symmetry_equiv_pos_as_xyz
  1  'x, y, z'
loop_
 _atom_site_type_symbol
 _atom_site_label
 _atom_site_symmetry_multiplicity
 _atom_site_fract_x
 _atom_site_fract_y
 _atom_site_fract_z
 _atom_site_occupancy
  Li  Li1  1  0.114822  0.623631  0.772170  1
  Li  Li2  1  0.087127  0.632505  0.190133  1
  Li  Li3  1  0.512116  0.006704  0.295776  1
  Li  Li4  1  0.487884  0.993296  0.704224  1
  Li  Li5  1  0.912873  0.367495  0.809867  1
  Li  Li6  1  0.885178  0.376369  0.227830  1
  Cr  Cr7  1  0.163039  0.955282  0.957450  1
  Cr  Cr8  1  0.155679  0.958590  0.352911  1
  Cr  Cr9  1  0.217218  0.353381  0.524919  1
  Cr  Cr10  1  0.235180  0.360298  0.134820  1
  Cr  Cr11  1  0.429186  0.652001  0.512548  1
  Cr  Cr12  1  0.440453  0.643758  0.115648  1
  Cr  Cr13  1  0.559547  0.356242  0.884352  1
  Cr  Cr14  1  0.570814  0.347999  0.487452  1
  Cr  Cr15  1  0.764820  0.639702  0.865180  1
  Cr  Cr16  1  0.782782  0.646619  0.475081  1
  Cr  Cr17  1  0.844321  0.041410  0.647089  1
  Cr  Cr18  1  0.836961  0.044718  0.042550  1
  O  O19  1  0.006218  0.994241  0.148459  1
  O  O20  1  0.138236  0.816153  0.882231  1
  O  O21  1  0.000000  0.000000  0.500000  1
  O  O22  1  0.090022  0.408105  0.671783  1
  O  O23  1  0.123289  0.819688  0.284251  1
  O  O24  1  0.115001  0.389295  0.334007  1
  O  O25  1  0.084862  0.398412  0.024096  1
  O  O26  1  0.276373  0.617046  0.972672  1
  O  O27  1  0.181658  0.215748  0.463047  1
  O  O28  1  0.285094  0.598134  0.605711  1
  O  O29  1  0.310185  0.611419  0.286033  1
  O  O30  1  0.226289  0.223762  0.059684  1
  O  O31  1  0.314418  0.001151  0.865709  1
  O  O32  1  0.440205  0.790447  0.584836  1
  O  O33  1  0.283106  0.989133  0.181496  1
  O  O34  1  0.318031  0.996139  0.499746  1
  O  O35  1  0.411123  0.386664  0.671127  1
  O  O36  1  0.392352  0.385099  0.371898  1
  O  O37  1  0.408134  0.411333  0.034918  1
  O  O38  1  0.486444  0.780599  0.184327  1
  O  O39  1  0.513556  0.219401  0.815673  1
  O  O40  1  0.591866  0.588667  0.965082  1
  O  O41  1  0.607648  0.614901  0.628102  1
  O  O42  1  0.588877  0.613336  0.328873  1
  O  O43  1  0.681969  0.003861  0.500254  1
  O  O44  1  0.716894  0.010867  0.818504  1
  O  O45  1  0.559795  0.209553  0.415164  1
  O  O46  1  0.685582  0.998849  0.134291  1
  O  O47  1  0.773711  0.776238  0.940316  1
  O  O48  1  0.689815  0.388581  0.713967  1
  O  O49  1  0.714906  0.401866  0.394289  1
  O  O50  1  0.818342  0.784252  0.536953  1
  O  O51  1  0.723627  0.382954  0.027328  1
  O  O52  1  0.915138  0.601588  0.975904  1
  O  O53  1  0.884999  0.610705  0.665993  1
  O  O54  1  0.876711  0.180312  0.715749  1
  O  O55  1  0.909978  0.591895  0.328217  1
  O  O56  1  0.861764  0.183847  0.117769  1
  O  O57  1  0.993782  0.005759  0.851540  1
