# generated using pymatgen
data_LiCr2O4
_symmetry_space_group_name_H-M   'P 1'
_cell_length_a   5.84487077
_cell_length_b   5.84493433
_cell_length_c   5.85233646
_cell_angle_alpha   120.21229683
_cell_angle_beta   118.68165325
_cell_angle_gamma   90.89432828
_symmetry_Int_Tables_number   1
_chemical_formula_structural   LiCr2O4
_chemical_formula_sum   'Li2 Cr4 O8'
_cell_volume   142.59234061
_cell_formula_units_Z   2
loop_
 _symmetry_equiv_pos_site_id
 _symmetry_equiv_pos_as_xyz
  1  'x, y, z'
loop_
 _atom_site_type_symbol
 _atom_site_label
 _atom_site_symmetry_multiplicity
 _atom_site_fract_x
 _atom_site_fract_y
 _atom_site_fract_z
 _atom_site_occupancy
  Li  Li1  1  -0.000002  0.500002  0.000004  1
  Li  Li2  1  -0.000003  0.999984  0.499988  1
  Cr  Cr3  1  0.378862  0.628860  0.749999  1
  Cr  Cr4  1  0.621118  0.371112  0.250006  1
  Cr  Cr5  1  0.500066  0.000028  0.500074  1
  Cr  Cr6  1  -0.000026  0.000041  -0.000042  1
  O  O7  1  0.749593  0.763526  0.515225  1
  O  O8  1  0.748301  0.234364  0.984774  1
  O  O9  1  0.249399  0.244645  0.005207  1
  O  O10  1  0.250401  0.236456  0.484753  1
  O  O11  1  0.260555  0.755805  0.505207  1
  O  O12  1  0.251698  0.765646  0.015239  1
  O  O13  1  0.739438  0.244183  0.494788  1
  O  O14  1  0.750600  0.755351  0.994780  1
