# generated using pymatgen
data_LiCr2O4
_symmetry_space_group_name_H-M   'P 1'
_cell_length_a   6.00774374
_cell_length_b   5.94630628
_cell_length_c   5.94715765
_cell_angle_alpha   90.11022073
_cell_angle_beta   120.39429646
_cell_angle_gamma   120.39002557
_symmetry_Int_Tables_number   1
_chemical_formula_structural   LiCr2O4
_chemical_formula_sum   'Li2 Cr4 O8'
_cell_volume   148.27968984
_cell_formula_units_Z   2
loop_
 _symmetry_equiv_pos_site_id
 _symmetry_equiv_pos_as_xyz
  1  'x, y, z'
loop_
 _atom_site_type_symbol
 _atom_site_label
 _atom_site_symmetry_multiplicity
 _atom_site_fract_x
 _atom_site_fract_y
 _atom_site_fract_z
 _atom_site_occupancy
  Li  Li1  1  0.000042  -0.000006  0.000049  1
  Li  Li2  1  0.500006  -0.000012  0.000051  1
  Cr  Cr3  1  0.499895  -0.000092  0.499853  1
  Cr  Cr4  1  0.500027  0.500113  0.499983  1
  Cr  Cr5  1  -0.000096  0.499903  -0.000082  1
  Cr  Cr6  1  0.000101  0.500098  0.500005  1
  O  O7  1  0.036758  0.741946  0.260039  1
  O  O8  1  0.483510  0.752313  0.713985  1
  O  O9  1  0.464268  0.741034  0.259099  1
  O  O10  1  0.983193  0.712486  0.753141  1
  O  O11  1  0.535614  0.258910  0.740908  1
  O  O12  1  0.516597  0.247752  0.286128  1
  O  O13  1  0.016845  0.287517  0.246905  1
  O  O14  1  0.963290  0.258003  0.739977  1
