# generated using pymatgen
data_LiCrO2
_symmetry_space_group_name_H-M   'P 1'
_cell_length_a   2.95142649
_cell_length_b   2.95149052
_cell_length_c   9.89216865
_cell_angle_alpha   89.99901039
_cell_angle_beta   90.00150569
_cell_angle_gamma   119.99960198
_symmetry_Int_Tables_number   1
_chemical_formula_structural   LiCrO2
_chemical_formula_sum   'Li2 Cr2 O4'
_cell_volume   74.62721741
_cell_formula_units_Z   2
loop_
 _symmetry_equiv_pos_site_id
 _symmetry_equiv_pos_as_xyz
  1  'x, y, z'
loop_
 _atom_site_type_symbol
 _atom_site_label
 _atom_site_symmetry_multiplicity
 _atom_site_fract_x
 _atom_site_fract_y
 _atom_site_fract_z
 _atom_site_occupancy
  Li  Li1  1  0.333380  0.666686  0.760967  1
  Li  Li2  1  0.666713  0.333322  0.260966  1
  Cr  Cr3  1  0.333398  0.666681  0.500199  1
  Cr  Cr4  1  0.666692  0.333303  0.000197  1
  O  O5  1  0.000053  0.000029  0.387740  1
  O  O6  1  0.333392  0.666677  0.110654  1
  O  O7  1  0.666717  0.333324  0.610653  1
  O  O8  1  0.000023  0.999981  0.887739  1
