# generated using pymatgen
data_Li6CrO4
_symmetry_space_group_name_H-M   'P 1'
_cell_length_a   6.78651899
_cell_length_b   6.78839849
_cell_length_c   4.60036698
_cell_angle_alpha   90.02077021
_cell_angle_beta   89.98428121
_cell_angle_gamma   90.00028960
_symmetry_Int_Tables_number   1
_chemical_formula_structural   Li6CrO4
_chemical_formula_sum   'Li12 Cr2 O8'
_cell_volume   211.93702305
_cell_formula_units_Z   2
loop_
 _symmetry_equiv_pos_site_id
 _symmetry_equiv_pos_as_xyz
  1  'x, y, z'
loop_
 _atom_site_type_symbol
 _atom_site_label
 _atom_site_symmetry_multiplicity
 _atom_site_fract_x
 _atom_site_fract_y
 _atom_site_fract_z
 _atom_site_occupancy
  Li  Li1  1  0.034423  0.534343  0.750016  1
  Li  Li2  1  0.034267  0.965740  0.749972  1
  Li  Li3  1  0.250105  0.249915  0.678406  1
  Li  Li4  1  0.250083  0.249899  0.178406  1
  Li  Li5  1  0.465671  0.534344  0.750121  1
  Li  Li6  1  0.465836  0.965740  0.750041  1
  Li  Li7  1  0.534250  0.034169  0.250013  1
  Li  Li8  1  0.534338  0.465755  0.249927  1
  Li  Li9  1  0.749967  0.750085  0.321599  1
  Li  Li10  1  0.749954  0.750089  0.821599  1
  Li  Li11  1  0.965730  0.034337  0.250046  1
  Li  Li12  1  0.965635  0.465567  0.249934  1
  Cr  Cr13  1  0.249814  0.749653  0.250353  1
  Cr  Cr14  1  0.750104  0.250488  0.749563  1
  O  O15  1  0.020686  0.250018  0.941725  1
  O  O16  1  0.250003  0.020566  0.441596  1
  O  O17  1  0.250000  0.479224  0.441795  1
  O  O18  1  0.479466  0.250018  0.941615  1
  O  O19  1  0.520505  0.749975  0.058446  1
  O  O20  1  0.750032  0.979463  0.558421  1
  O  O21  1  0.750037  0.520808  0.558182  1
  O  O22  1  0.979276  0.749985  0.058225  1
