# generated using pymatgen
data_Li5Cr4O8
_symmetry_space_group_name_H-M   'P 1'
_cell_length_a   8.38194572
_cell_length_b   8.54712221
_cell_length_c   8.88130980
_cell_angle_alpha   90.00569611
_cell_angle_beta   89.99681921
_cell_angle_gamma   90.00493928
_symmetry_Int_Tables_number   1
_chemical_formula_structural   Li5Cr4O8
_chemical_formula_sum   'Li20 Cr16 O32'
_cell_volume   636.27047785
_cell_formula_units_Z   4
loop_
 _symmetry_equiv_pos_site_id
 _symmetry_equiv_pos_as_xyz
  1  'x, y, z'
loop_
 _atom_site_type_symbol
 _atom_site_label
 _atom_site_symmetry_multiplicity
 _atom_site_fract_x
 _atom_site_fract_y
 _atom_site_fract_z
 _atom_site_occupancy
  Li  Li1  1  0.938435  0.056288  0.955394  1
  Li  Li2  1  0.366841  0.124572  0.401031  1
  Li  Li3  1  0.613213  0.144281  0.625152  1
  Li  Li4  1  0.124752  0.112568  0.146346  1
  Li  Li5  1  0.813383  0.197991  0.794360  1
  Li  Li6  1  0.313266  0.301909  0.205678  1
  Li  Li7  1  0.624791  0.387388  0.853567  1
  Li  Li8  1  0.113113  0.355653  0.374871  1
  Li  Li9  1  0.866853  0.375398  0.598969  1
  Li  Li10  1  0.438445  0.443670  0.044650  1
  Li  Li11  1  0.061503  0.556241  0.544635  1
  Li  Li12  1  0.633228  0.624510  0.099013  1
  Li  Li13  1  0.386792  0.644260  0.874891  1
  Li  Li14  1  0.875188  0.612653  0.353655  1
  Li  Li15  1  0.186694  0.698082  0.705667  1
  Li  Li16  1  0.686639  0.802059  0.294329  1
  Li  Li17  1  0.375161  0.887576  0.646323  1
  Li  Li18  1  0.886805  0.855708  0.125120  1
  Li  Li19  1  0.133105  0.875481  0.901054  1
  Li  Li20  1  0.561520  0.943793  0.455423  1
  Cr  Cr21  1  0.375269  0.123559  0.869445  1
  Cr  Cr22  1  0.624354  0.127175  0.123596  1
  Cr  Cr23  1  0.124372  0.372840  0.876357  1
  Cr  Cr24  1  0.875300  0.376450  0.130543  1
  Cr  Cr25  1  0.624718  0.623559  0.630458  1
  Cr  Cr26  1  0.375653  0.627181  0.376395  1
  Cr  Cr27  1  0.875628  0.872800  0.623565  1
  Cr  Cr28  1  0.124711  0.876475  0.369470  1
  Cr  Cr29  1  0.123442  0.124030  0.620150  1
  Cr  Cr30  1  0.871567  0.123923  0.373967  1
  Cr  Cr31  1  0.371540  0.376017  0.625910  1
  Cr  Cr32  1  0.623492  0.375910  0.379786  1
  Cr  Cr33  1  0.876542  0.624062  0.879835  1
  Cr  Cr34  1  0.128410  0.623927  0.126102  1
  Cr  Cr35  1  0.628420  0.876066  0.873971  1
  Cr  Cr36  1  0.376551  0.875991  0.120241  1
  O  O37  1  0.374596  0.115678  0.102579  1
  O  O38  1  0.617018  0.112305  0.857102  1
  O  O39  1  0.119988  0.116030  0.382119  1
  O  O40  1  0.882942  0.122919  0.604724  1
  O  O41  1  0.367164  0.130635  0.633337  1
  O  O42  1  0.874348  0.139875  0.143204  1
  O  O43  1  0.129259  0.123890  0.853969  1
  O  O44  1  0.631309  0.140219  0.391244  1
  O  O45  1  0.131270  0.359750  0.608682  1
  O  O46  1  0.629291  0.376059  0.146024  1
  O  O47  1  0.374331  0.360206  0.856738  1
  O  O48  1  0.867164  0.369352  0.366666  1
  O  O49  1  0.382998  0.376898  0.395234  1
  O  O50  1  0.619985  0.383957  0.617852  1
  O  O51  1  0.117028  0.387730  0.142942  1
  O  O52  1  0.874628  0.384340  0.897354  1
  O  O53  1  0.625449  0.615660  0.397327  1
  O  O54  1  0.382876  0.612291  0.642379  1
  O  O55  1  0.879995  0.616027  0.117867  1
  O  O56  1  0.117122  0.622966  0.895302  1
  O  O57  1  0.632734  0.630633  0.866636  1
  O  O58  1  0.125633  0.639899  0.356837  1
  O  O59  1  0.870702  0.623882  0.646044  1
  O  O60  1  0.368765  0.640155  0.109240  1
  O  O61  1  0.868693  0.859765  0.891300  1
  O  O62  1  0.370716  0.876253  0.353972  1
  O  O63  1  0.625657  0.860107  0.643180  1
  O  O64  1  0.132832  0.869348  0.133350  1
  O  O65  1  0.616998  0.877083  0.104726  1
  O  O66  1  0.379975  0.883889  0.882132  1
  O  O67  1  0.882977  0.887708  0.357060  1
  O  O68  1  0.125380  0.884336  0.602625  1
