# generated using pymatgen
data_LiCr3O8
_symmetry_space_group_name_H-M   'P 1'
_cell_length_a   14.66766136
_cell_length_b   5.58265828
_cell_length_c   8.13674846
_cell_angle_alpha   89.99999784
_cell_angle_beta   90.00501047
_cell_angle_gamma   89.99956932
_symmetry_Int_Tables_number   1
_chemical_formula_structural   LiCr3O8
_chemical_formula_sum   'Li4 Cr12 O32'
_cell_volume   666.27391146
_cell_formula_units_Z   4
loop_
 _symmetry_equiv_pos_site_id
 _symmetry_equiv_pos_as_xyz
  1  'x, y, z'
loop_
 _atom_site_type_symbol
 _atom_site_label
 _atom_site_symmetry_multiplicity
 _atom_site_fract_x
 _atom_site_fract_y
 _atom_site_fract_z
 _atom_site_occupancy
  Li  Li1  1  0.285058  0.250000  0.999347  1
  Li  Li2  1  0.214946  0.750000  0.499393  1
  Li  Li3  1  0.785045  0.250001  0.500603  1
  Li  Li4  1  0.714948  0.750001  0.000597  1
  Cr  Cr5  1  0.056554  0.749988  0.738143  1
  Cr  Cr6  1  0.087589  0.750000  0.146716  1
  Cr  Cr7  1  0.121952  0.249999  0.531596  1
  Cr  Cr8  1  0.377977  0.749999  0.031473  1
  Cr  Cr9  1  0.412428  0.249998  0.646680  1
  Cr  Cr10  1  0.443454  0.250017  0.238118  1
  Cr  Cr11  1  0.556538  0.750001  0.761893  1
  Cr  Cr12  1  0.587582  0.750004  0.353345  1
  Cr  Cr13  1  0.621982  0.250003  0.968525  1
  Cr  Cr14  1  0.878066  0.750001  0.468419  1
  Cr  Cr15  1  0.912412  0.250001  0.853291  1
  Cr  Cr16  1  0.943458  0.249993  0.261859  1
  O  O17  1  0.013317  0.250000  0.473022  1
  O  O18  1  0.024954  0.994159  0.180341  1
  O  O19  1  0.024956  0.505845  0.180343  1
  O  O20  1  0.123973  0.750001  0.950069  1
  O  O21  1  0.143496  0.508189  0.639090  1
  O  O22  1  0.143495  0.991814  0.639088  1
  O  O23  1  0.177423  0.749999  0.266295  1
  O  O24  1  0.187422  0.250002  0.374102  1
  O  O25  1  0.312574  0.749997  0.874087  1
  O  O26  1  0.322587  0.250000  0.766275  1
  O  O27  1  0.356504  0.491821  0.139062  1
  O  O28  1  0.356504  0.008176  0.139062  1
  O  O29  1  0.376040  0.249997  0.450042  1
  O  O30  1  0.475047  0.494156  0.680336  1
  O  O31  1  0.475048  0.005838  0.680333  1
  O  O32  1  0.486681  0.749999  0.973024  1
  O  O33  1  0.513320  0.250004  0.026982  1
  O  O34  1  0.524948  0.994164  0.319670  1
  O  O35  1  0.524947  0.505842  0.319678  1
  O  O36  1  0.623962  0.750001  0.549982  1
  O  O37  1  0.643487  0.991819  0.860939  1
  O  O38  1  0.643486  0.508175  0.860937  1
  O  O39  1  0.677403  0.749998  0.233742  1
  O  O40  1  0.687424  0.250005  0.125913  1
  O  O41  1  0.812587  0.750002  0.625872  1
  O  O42  1  0.822584  0.249995  0.733717  1
  O  O43  1  0.856511  0.491809  0.360900  1
  O  O44  1  0.856513  0.008192  0.360902  1
  O  O45  1  0.876036  0.249999  0.049927  1
  O  O46  1  0.975049  0.494167  0.819659  1
  O  O47  1  0.975048  0.005832  0.819658  1
  O  O48  1  0.986688  0.750000  0.526955  1
