# generated using pymatgen
data_LiCr2O4
_symmetry_space_group_name_H-M   'P 1'
_cell_length_a   10.36252160
_cell_length_b   8.99198457
_cell_length_c   2.93955212
_cell_angle_alpha   90.00000000
_cell_angle_beta   90.00000000
_cell_angle_gamma   90.00000000
_symmetry_Int_Tables_number   1
_chemical_formula_structural   LiCr2O4
_chemical_formula_sum   'Li4 Cr8 O16'
_cell_volume   273.90639165
_cell_formula_units_Z   4
loop_
 _symmetry_equiv_pos_site_id
 _symmetry_equiv_pos_as_xyz
  1  'x, y, z'
loop_
 _atom_site_type_symbol
 _atom_site_label
 _atom_site_symmetry_multiplicity
 _atom_site_fract_x
 _atom_site_fract_y
 _atom_site_fract_z
 _atom_site_occupancy
  Li  Li1  1  0.131287  0.742350  0.750000  1
  Li  Li2  1  0.368713  0.242350  0.750000  1
  Li  Li3  1  0.631287  0.757650  0.250000  1
  Li  Li4  1  0.868713  0.257650  0.250000  1
  Cr  Cr5  1  0.102828  0.413798  0.250000  1
  Cr  Cr6  1  0.117971  0.059801  0.750000  1
  Cr  Cr7  1  0.382029  0.559801  0.750000  1
  Cr  Cr8  1  0.397172  0.913798  0.250000  1
  Cr  Cr9  1  0.602828  0.086202  0.750000  1
  Cr  Cr10  1  0.617971  0.440199  0.250000  1
  Cr  Cr11  1  0.882029  0.940199  0.250000  1
  Cr  Cr12  1  0.897172  0.586202  0.750000  1
  O  O13  1  0.026484  0.618653  0.250000  1
  O  O14  1  0.069967  0.917287  0.250000  1
  O  O15  1  0.155063  0.197281  0.250000  1
  O  O16  1  0.217978  0.469474  0.750000  1
  O  O17  1  0.282022  0.969474  0.750000  1
  O  O18  1  0.344937  0.697281  0.250000  1
  O  O19  1  0.430033  0.417287  0.250000  1
  O  O20  1  0.473516  0.118653  0.250000  1
  O  O21  1  0.526484  0.881347  0.750000  1
  O  O22  1  0.569967  0.582713  0.750000  1
  O  O23  1  0.655063  0.302719  0.750000  1
  O  O24  1  0.717978  0.030526  0.250000  1
  O  O25  1  0.782022  0.530526  0.250000  1
  O  O26  1  0.844937  0.802719  0.750000  1
  O  O27  1  0.930033  0.082713  0.750000  1
  O  O28  1  0.973516  0.381347  0.750000  1
