# generated using pymatgen
data_Li(CuO)3
_symmetry_space_group_name_H-M   'P 1'
_cell_length_a   3.96594822
_cell_length_b   3.96594822
_cell_length_c   18.61831572
_cell_angle_alpha   83.88602295
_cell_angle_beta   83.88602295
_cell_angle_gamma   90.00000000
_symmetry_Int_Tables_number   1
_chemical_formula_structural   Li(CuO)3
_chemical_formula_sum   'Li4 Cu12 O12'
_cell_volume   289.50177805
_cell_formula_units_Z   4
loop_
 _symmetry_equiv_pos_site_id
 _symmetry_equiv_pos_as_xyz
  1  'x, y, z'
loop_
 _atom_site_type_symbol
 _atom_site_label
 _atom_site_symmetry_multiplicity
 _atom_site_fract_x
 _atom_site_fract_y
 _atom_site_fract_z
 _atom_site_occupancy
  Li  Li1  1  0.313975  0.813975  0.372049  1
  Li  Li2  1  0.564335  0.064335  0.871331  1
  Li  Li3  1  0.685665  0.185665  0.628669  1
  Li  Li4  1  0.936025  0.436025  0.127951  1
  Cu  Cu5  1  0.000079  0.000079  -0.000160  1
  Cu  Cu6  1  0.500079  0.500079  -0.000160  1
  Cu  Cu7  1  0.125000  0.125000  0.750000  1
  Cu  Cu8  1  0.249921  0.249921  0.500160  1
  Cu  Cu9  1  0.375000  0.375000  0.250000  1
  Cu  Cu10  1  0.052141  0.552141  0.895717  1
  Cu  Cu11  1  0.197859  0.697859  0.604283  1
  Cu  Cu12  1  0.448371  0.948371  0.103259  1
  Cu  Cu13  1  0.801629  0.301629  0.396741  1
  Cu  Cu14  1  0.625000  0.625000  0.750000  1
  Cu  Cu15  1  0.875000  0.875000  0.250000  1
  Cu  Cu16  1  0.749921  0.749921  0.500160  1
  O  O17  1  0.300568  0.300568  0.398866  1
  O  O18  1  0.199408  0.199408  0.601186  1
  O  O19  1  0.050592  0.050592  0.898814  1
  O  O20  1  0.449432  0.449432  0.101134  1
  O  O21  1  0.125000  0.625000  0.750000  1
  O  O22  1  0.371324  0.871324  0.257350  1
  O  O23  1  0.625000  0.125000  0.750000  1
  O  O24  1  0.878676  0.378676  0.242650  1
  O  O25  1  0.550592  0.550592  0.898814  1
  O  O26  1  0.699408  0.699408  0.601186  1
  O  O27  1  0.949432  0.949432  0.101134  1
  O  O28  1  0.800568  0.800568  0.398866  1
