# generated using pymatgen
data_Li4B2O5
_symmetry_space_group_name_H-M   'P 1'
_cell_length_a   6.01748257
_cell_length_b   6.01748257
_cell_length_c   6.05708692
_cell_angle_alpha   74.98856392
_cell_angle_beta   105.01143608
_cell_angle_gamma   106.76526412
_symmetry_Int_Tables_number   1
_chemical_formula_structural   Li4B2O5
_chemical_formula_sum   'Li8 B4 O10'
_cell_volume   198.76999335
_cell_formula_units_Z   2
loop_
 _symmetry_equiv_pos_site_id
 _symmetry_equiv_pos_as_xyz
  1  'x, y, z'
loop_
 _atom_site_type_symbol
 _atom_site_label
 _atom_site_symmetry_multiplicity
 _atom_site_fract_x
 _atom_site_fract_y
 _atom_site_fract_z
 _atom_site_occupancy
  Li  Li1  1  0.671776  0.934613  0.735219  1
  Li  Li2  1  0.341999  0.609728  0.532690  1
  Li  Li3  1  0.065387  0.328224  0.235219  1
  Li  Li4  1  0.390272  0.658001  0.032690  1
  Li  Li5  1  0.609728  0.341999  0.967310  1
  Li  Li6  1  0.934613  0.671776  0.764781  1
  Li  Li7  1  0.658001  0.390272  0.467310  1
  Li  Li8  1  0.328224  0.065387  0.264781  1
  B  B9  1  0.055239  0.247310  0.841164  1
  B  B10  1  0.752690  0.944761  0.341164  1
  B  B11  1  0.247310  0.055239  0.658836  1
  B  B12  1  0.944761  0.752690  0.158836  1
  O  O13  1  0.324795  0.852224  0.715141  1
  O  O14  1  0.147776  0.675205  0.215141  1
  O  O15  1  0.263212  0.335433  0.980988  1
  O  O16  1  0.045367  0.045367  0.750000  1
  O  O17  1  0.664567  0.736788  0.480988  1
  O  O18  1  0.335433  0.263212  0.519012  1
  O  O19  1  0.954633  0.954633  0.250000  1
  O  O20  1  0.736788  0.664567  0.019013  1
  O  O21  1  0.852224  0.324795  0.784859  1
  O  O22  1  0.675205  0.147776  0.284859  1
