# generated using pymatgen
data_KF3
_symmetry_space_group_name_H-M   'P 1'
_cell_length_a   7.59648452
_cell_length_b   9.89794914
_cell_length_c   7.37124699
_cell_angle_alpha   90.00000000
_cell_angle_beta   90.00000000
_cell_angle_gamma   90.00000000
_symmetry_Int_Tables_number   1
_chemical_formula_structural   KF3
_chemical_formula_sum   'K8 F24'
_cell_volume   554.24124110
_cell_formula_units_Z   8
loop_
 _symmetry_equiv_pos_site_id
 _symmetry_equiv_pos_as_xyz
  1  'x, y, z'
loop_
 _atom_site_type_symbol
 _atom_site_label
 _atom_site_symmetry_multiplicity
 _atom_site_fract_x
 _atom_site_fract_y
 _atom_site_fract_z
 _atom_site_occupancy
  K  K1  1  0.773065  0.647482  0.428413  1
  K  K2  1  0.726935  0.352518  0.928413  1
  K  K3  1  0.273065  0.852518  0.571587  1
  K  K4  1  0.226935  0.147482  0.071587  1
  K  K5  1  0.825793  0.129423  0.467892  1
  K  K6  1  0.674207  0.870577  0.967892  1
  K  K7  1  0.325793  0.370577  0.532108  1
  K  K8  1  0.174207  0.629423  0.032108  1
  F  F9  1  0.693151  0.624304  0.789309  1
  F  F10  1  0.806849  0.375696  0.289309  1
  F  F11  1  0.193151  0.875696  0.210691  1
  F  F12  1  0.306849  0.124304  0.710691  1
  F  F13  1  0.796704  0.610531  0.039163  1
  F  F14  1  0.703296  0.389469  0.539163  1
  F  F15  1  0.296704  0.889469  0.960837  1
  F  F16  1  0.203296  0.110531  0.460837  1
  F  F17  1  0.938216  0.871619  0.268445  1
  F  F18  1  0.561784  0.128381  0.768445  1
  F  F19  1  0.438216  0.628381  0.731555  1
  F  F20  1  0.061784  0.371619  0.231555  1
  F  F21  1  0.966849  0.009683  0.766237  1
  F  F22  1  0.533151  -0.009683  0.266237  1
  F  F23  1  0.466849  0.490318  0.233763  1
  F  F24  1  0.033151  0.509683  0.733763  1
  F  F25  1  0.463258  0.689418  0.234612  1
  F  F26  1  0.036742  0.310582  0.734612  1
  F  F27  1  0.963258  0.810582  0.765388  1
  F  F28  1  0.536742  0.189418  0.265388  1
  F  F29  1  0.621258  0.905355  0.493067  1
  F  F30  1  0.878742  0.094645  -0.006933  1
  F  F31  1  0.121258  0.594645  0.506933  1
  F  F32  1  0.378742  0.405355  0.006933  1
