# generated using pymatgen
data_Li4(CuO2)3
_symmetry_space_group_name_H-M   'P 1'
_cell_length_a   5.34441812
_cell_length_b   8.67225688
_cell_length_c   3.52741408
_cell_angle_alpha   101.49661406
_cell_angle_beta   109.18103682
_cell_angle_gamma   103.39388723
_symmetry_Int_Tables_number   1
_chemical_formula_structural   Li4(CuO2)3
_chemical_formula_sum   'Li4 Cu3 O6'
_cell_volume   143.30558082
_cell_formula_units_Z   1
loop_
 _symmetry_equiv_pos_site_id
 _symmetry_equiv_pos_as_xyz
  1  'x, y, z'
loop_
 _atom_site_type_symbol
 _atom_site_label
 _atom_site_symmetry_multiplicity
 _atom_site_fract_x
 _atom_site_fract_y
 _atom_site_fract_z
 _atom_site_occupancy
  Li  Li1  1  0.813049  0.255422  0.032975  1
  Li  Li2  1  0.525566  0.078639  0.303620  1
  Li  Li3  1  0.118624  0.559465  0.340887  1
  Li  Li4  1  0.210952  0.773990  0.990730  1
  Cu  Cu5  1  0.663566  0.665786  0.164530  1
  Cu  Cu6  1  0.331124  0.337244  0.834577  1
  Cu  Cu7  1  0.004788  0.996301  0.500263  1
  O  O8  1  0.949794  0.211604  0.579868  1
  O  O9  1  0.708514  0.458603  0.083009  1
  O  O10  1  0.615669  0.871885  0.243593  1
  O  O11  1  0.398062  0.133064  0.766691  1
  O  O12  1  0.280812  0.548079  0.916014  1
  O  O13  1  0.046143  0.776583  0.409910  1
