# generated using pymatgen
data_Li4(CuO2)3
_symmetry_space_group_name_H-M   'P 1'
_cell_length_a   6.53804429
_cell_length_b   6.53804508
_cell_length_c   7.36004817
_cell_angle_alpha   110.07449692
_cell_angle_beta   110.07449365
_cell_angle_gamma   78.81179910
_symmetry_Int_Tables_number   1
_chemical_formula_structural   Li4(CuO2)3
_chemical_formula_sum   'Li8 Cu6 O12'
_cell_volume   276.50898563
_cell_formula_units_Z   2
loop_
 _symmetry_equiv_pos_site_id
 _symmetry_equiv_pos_as_xyz
  1  'x, y, z'
loop_
 _atom_site_type_symbol
 _atom_site_label
 _atom_site_symmetry_multiplicity
 _atom_site_fract_x
 _atom_site_fract_y
 _atom_site_fract_z
 _atom_site_occupancy
  Li  Li1  1  0.974685  0.980371  0.474568  1
  Li  Li2  1  0.973820  0.307154  0.864441  1
  Li  Li3  1  0.647037  0.308018  0.474568  1
  Li  Li4  1  0.373617  0.352727  0.126858  1
  Li  Li5  1  0.642159  0.651502  0.883752  1
  Li  Li6  1  0.357472  0.690805  0.520661  1
  Li  Li7  1  0.019393  0.706951  0.126858  1
  Li  Li8  1  0.318169  0.975492  0.883752  1
  Cu  Cu9  1  0.509095  0.172912  0.727897  1
  Cu  Cu10  1  0.151435  0.158146  0.270368  1
  Cu  Cu11  1  0.183146  0.516479  0.738440  1
  Cu  Cu12  1  0.824813  0.484769  0.270368  1
  Cu  Cu13  1  0.839579  0.842428  0.727897  1
  Cu  Cu14  1  0.486510  0.819843  0.263062  1
  O  O15  1  0.268055  0.265771  0.831699  1
  O  O16  1  0.770070  0.103404  0.655015  1
  O  O17  1  0.397917  0.076122  0.181327  1
  O  O18  1  0.448440  0.442769  0.669672  1
  O  O19  1  0.069998  0.403332  0.173314  1
  O  O20  1  0.109435  0.781773  0.669672  1
  O  O21  1  0.916541  0.249874  0.375646  1
  O  O22  1  0.932438  0.601388  0.831699  1
  O  O23  1  0.563533  0.556261  0.339321  1
  O  O24  1  0.562452  0.895786  0.768482  1
  O  O25  1  0.222928  0.896866  0.339321  1
  O  O26  1  0.742789  0.731250  0.181327  1
