# generated using pymatgen
data_Li3Ca
_symmetry_space_group_name_H-M   'P 1'
_cell_length_a   5.29521845
_cell_length_b   5.29523502
_cell_length_c   5.29513875
_cell_angle_alpha   60.00006413
_cell_angle_beta   59.99994465
_cell_angle_gamma   59.99971132
_symmetry_Int_Tables_number   1
_chemical_formula_structural   Li3Ca
_chemical_formula_sum   'Li3 Ca1'
_cell_volume   104.98579711
_cell_formula_units_Z   1
loop_
 _symmetry_equiv_pos_site_id
 _symmetry_equiv_pos_as_xyz
  1  'x, y, z'
loop_
 _atom_site_type_symbol
 _atom_site_label
 _atom_site_symmetry_multiplicity
 _atom_site_fract_x
 _atom_site_fract_y
 _atom_site_fract_z
 _atom_site_occupancy
  Li  Li1  1  -0.000003  0.000000  0.000000  1
  Li  Li2  1  0.499999  0.500003  0.499998  1
  Li  Li3  1  0.249997  0.250004  0.249998  1
  Ca  Ca4  1  0.750007  0.749993  0.750003  1
