# generated using pymatgen
data_Li6B4O9
_symmetry_space_group_name_H-M   'P 1'
_cell_length_a   6.72880014
_cell_length_b   7.16349330
_cell_length_c   8.50322485
_cell_angle_alpha   93.47085875
_cell_angle_beta   100.98339859
_cell_angle_gamma   98.61454473
_symmetry_Int_Tables_number   1
_chemical_formula_structural   Li6B4O9
_chemical_formula_sum   'Li12 B8 O18'
_cell_volume   396.14394670
_cell_formula_units_Z   2
loop_
 _symmetry_equiv_pos_site_id
 _symmetry_equiv_pos_as_xyz
  1  'x, y, z'
loop_
 _atom_site_type_symbol
 _atom_site_label
 _atom_site_symmetry_multiplicity
 _atom_site_fract_x
 _atom_site_fract_y
 _atom_site_fract_z
 _atom_site_occupancy
  Li  Li1  1  0.064352  0.043398  0.872955  1
  Li  Li2  1  0.092127  0.664512  0.210899  1
  Li  Li3  1  0.061414  0.196774  0.520747  1
  Li  Li4  1  0.253564  0.680244  0.947570  1
  Li  Li5  1  0.374433  0.459191  0.357040  1
  Li  Li6  1  0.396716  0.291629  0.768984  1
  Li  Li7  1  0.603284  0.708371  0.231016  1
  Li  Li8  1  0.625567  0.540809  0.642960  1
  Li  Li9  1  0.746436  0.319756  0.052430  1
  Li  Li10  1  0.938586  0.803226  0.479253  1
  Li  Li11  1  0.907873  0.335488  0.789101  1
  Li  Li12  1  0.935648  0.956602  0.127045  1
  B  B13  1  0.234766  0.583098  0.569793  1
  B  B14  1  0.264370  0.362028  0.068288  1
  B  B15  1  0.285818  0.902942  0.705263  1
  B  B16  1  0.335208  0.039228  0.155040  1
  B  B17  1  0.664792  0.960772  0.844960  1
  B  B18  1  0.714182  0.097058  0.294737  1
  B  B19  1  0.735630  0.637972  0.931712  1
  B  B20  1  0.765234  0.416902  0.430207  1
  O  O21  1  0.149105  0.650308  0.432419  1
  O  O22  1  0.125299  0.988959  0.657423  1
  O  O23  1  0.191527  0.309288  0.909085  1
  O  O24  1  0.304513  0.227165  0.184957  1
  O  O25  1  0.193220  0.911383  0.054762  1
  O  O26  1  0.267722  0.705062  0.720383  1
  O  O27  1  0.317309  0.418255  0.576008  1
  O  O28  1  0.307340  0.546144  0.134639  1
  O  O29  1  0.518055  0.984819  0.235586  1
  O  O30  1  0.481945  0.015181  0.764414  1
  O  O31  1  0.692660  0.453856  0.865361  1
  O  O32  1  0.682691  0.581745  0.423992  1
  O  O33  1  0.732278  0.294938  0.279617  1
  O  O34  1  0.806780  0.088617  0.945238  1
  O  O35  1  0.695487  0.772835  0.815043  1
  O  O36  1  0.808473  0.690712  0.090915  1
  O  O37  1  0.874701  0.011041  0.342577  1
  O  O38  1  0.850895  0.349692  0.567581  1
