# generated using pymatgen
data_LiIn3
_symmetry_space_group_name_H-M   'P 1'
_cell_length_a   4.59253180
_cell_length_b   4.59252012
_cell_length_c   4.59252437
_cell_angle_alpha   90.00003917
_cell_angle_beta   90.00005864
_cell_angle_gamma   90.00049217
_symmetry_Int_Tables_number   1
_chemical_formula_structural   LiIn3
_chemical_formula_sum   'Li1 In3'
_cell_volume   96.86228487
_cell_formula_units_Z   1
loop_
 _symmetry_equiv_pos_site_id
 _symmetry_equiv_pos_as_xyz
  1  'x, y, z'
loop_
 _atom_site_type_symbol
 _atom_site_label
 _atom_site_symmetry_multiplicity
 _atom_site_fract_x
 _atom_site_fract_y
 _atom_site_fract_z
 _atom_site_occupancy
  Li  Li1  1  0.000002  0.000000  0.000001  1
  In  In2  1  0.000001  0.500001  0.500000  1
  In  In3  1  0.500001  -0.000000  0.499999  1
  In  In4  1  0.500000  0.500003  0.000003  1
