# generated using pymatgen
data_LiSi
_symmetry_space_group_name_H-M   'P 1'
_cell_length_a   7.53968262
_cell_length_b   8.12714405
_cell_length_c   8.12714409
_cell_angle_alpha   77.57483332
_cell_angle_beta   62.36365735
_cell_angle_gamma   62.36365708
_symmetry_Int_Tables_number   1
_chemical_formula_structural   LiSi
_chemical_formula_sum   'Li8 Si8'
_cell_volume   390.84785337
_cell_formula_units_Z   8
loop_
 _symmetry_equiv_pos_site_id
 _symmetry_equiv_pos_as_xyz
  1  'x, y, z'
loop_
 _atom_site_type_symbol
 _atom_site_label
 _atom_site_symmetry_multiplicity
 _atom_site_fract_x
 _atom_site_fract_y
 _atom_site_fract_z
 _atom_site_occupancy
  Li  Li1  1  0.789072  0.147105  0.022835  1
  Li  Li2  1  0.959012  0.352895  0.477165  1
  Li  Li3  1  0.188093  0.522835  0.852895  1
  Li  Li4  1  0.210928  0.852895  0.977165  1
  Li  Li5  1  0.040988  0.647105  0.522835  1
  Li  Li6  1  0.436177  0.022835  0.352895  1
  Li  Li7  1  0.811907  0.477165  0.147105  1
  Li  Li8  1  0.563823  0.977165  0.647105  1
  Si  Si9  1  0.289572  0.311740  0.592703  1
  Si  Si10  1  0.882275  0.907297  0.311740  1
  Si  Si11  1  0.710428  0.688260  0.407297  1
  Si  Si12  1  0.194015  0.188260  0.907297  1
  Si  Si13  1  0.101312  0.592703  0.188260  1
  Si  Si14  1  0.117725  0.092703  0.688260  1
  Si  Si15  1  0.898688  0.407297  0.811740  1
  Si  Si16  1  0.805985  0.811740  0.092703  1
