# generated using pymatgen
data_Li(CuO)2
_symmetry_space_group_name_H-M   'P 1'
_cell_length_a   5.75816207
_cell_length_b   5.75816207
_cell_length_c   12.55863199
_cell_angle_alpha   90.00000000
_cell_angle_beta   90.00000000
_cell_angle_gamma   90.00000000
_symmetry_Int_Tables_number   1
_chemical_formula_structural   Li(CuO)2
_chemical_formula_sum   'Li8 Cu16 O16'
_cell_volume   416.39940780
_cell_formula_units_Z   8
loop_
 _symmetry_equiv_pos_site_id
 _symmetry_equiv_pos_as_xyz
  1  'x, y, z'
loop_
 _atom_site_type_symbol
 _atom_site_label
 _atom_site_symmetry_multiplicity
 _atom_site_fract_x
 _atom_site_fract_y
 _atom_site_fract_z
 _atom_site_occupancy
  Li  Li1  1  0.506483  0.750000  0.677718  1
  Li  Li2  1  0.493517  0.250000  0.322282  1
  Li  Li3  1  0.750000  0.993517  0.177718  1
  Li  Li4  1  0.750000  0.506483  0.177718  1
  Li  Li5  1  0.006483  0.250000  0.322282  1
  Li  Li6  1  0.250000  0.493517  0.822282  1
  Li  Li7  1  0.250000  0.006483  0.822282  1
  Li  Li8  1  0.993517  0.750000  0.677718  1
  Cu  Cu9  1  0.497938  0.750000  0.993294  1
  Cu  Cu10  1  0.501959  0.250000  0.650495  1
  Cu  Cu11  1  0.250000  0.502062  0.506706  1
  Cu  Cu12  1  0.001959  0.750000  0.349505  1
  Cu  Cu13  1  0.750000  0.497938  0.493294  1
  Cu  Cu14  1  0.250000  0.998041  0.150495  1
  Cu  Cu15  1  0.250000  0.997938  0.506706  1
  Cu  Cu16  1  0.998041  0.250000  0.650495  1
  Cu  Cu17  1  0.502062  0.250000  0.006706  1
  Cu  Cu18  1  0.002062  0.750000  0.993294  1
  Cu  Cu19  1  0.498041  0.750000  0.349505  1
  Cu  Cu20  1  0.250000  0.501959  0.150495  1
  Cu  Cu21  1  0.997938  0.250000  0.006706  1
  Cu  Cu22  1  0.750000  0.002062  0.493294  1
  Cu  Cu23  1  0.750000  0.498041  0.849505  1
  Cu  Cu24  1  0.750000  0.001959  0.849505  1
  O  O25  1  0.750000  0.009385  0.641455  1
  O  O26  1  0.250000  0.990615  0.358545  1
  O  O27  1  0.009237  0.250000  0.156287  1
  O  O28  1  0.509385  0.250000  0.858545  1
  O  O29  1  0.750000  0.509237  0.343713  1
  O  O30  1  0.250000  0.509385  0.358545  1
  O  O31  1  0.009385  0.750000  0.141455  1
  O  O32  1  0.490615  0.750000  0.141455  1
  O  O33  1  0.750000  0.990763  0.343713  1
  O  O34  1  0.509237  0.750000  0.843713  1
  O  O35  1  0.990615  0.250000  0.858545  1
  O  O36  1  0.490763  0.250000  0.156287  1
  O  O37  1  0.250000  0.490763  0.656287  1
  O  O38  1  0.250000  0.009237  0.656287  1
  O  O39  1  0.990763  0.750000  0.843713  1
  O  O40  1  0.750000  0.490615  0.641455  1
