# generated using pymatgen
data_LiP5
_symmetry_space_group_name_H-M   'P 1'
_cell_length_a   6.12669839
_cell_length_b   8.07888509
_cell_length_c   9.51208590
_cell_angle_alpha   90.00000000
_cell_angle_beta   90.00000000
_cell_angle_gamma   90.00000000
_symmetry_Int_Tables_number   1
_chemical_formula_structural   LiP5
_chemical_formula_sum   'Li4 P20'
_cell_volume   470.81869109
_cell_formula_units_Z   4
loop_
 _symmetry_equiv_pos_site_id
 _symmetry_equiv_pos_as_xyz
  1  'x, y, z'
loop_
 _atom_site_type_symbol
 _atom_site_label
 _atom_site_symmetry_multiplicity
 _atom_site_fract_x
 _atom_site_fract_y
 _atom_site_fract_z
 _atom_site_occupancy
  Li  Li1  1  0.234863  0.631588  0.363708  1
  Li  Li2  1  0.234863  0.868412  0.863708  1
  Li  Li3  1  0.734863  0.131588  0.136292  1
  Li  Li4  1  0.734863  0.368412  0.636292  1
  P  P5  1  0.142736  0.509234  0.113872  1
  P  P6  1  0.142736  0.990766  0.613872  1
  P  P7  1  0.281405  0.554160  0.897246  1
  P  P8  1  0.071506  0.141874  -0.044183  1
  P  P9  1  0.289364  0.248137  0.615102  1
  P  P10  1  0.071506  0.358126  0.455817  1
  P  P11  1  0.289364  0.251863  0.115102  1
  P  P12  1  0.281405  0.945840  0.397246  1
  P  P13  1  0.598126  0.658096  0.199636  1
  P  P14  1  0.598126  0.841904  0.699636  1
  P  P15  1  0.642736  0.009234  0.386128  1
  P  P16  1  0.642736  0.490766  0.886128  1
  P  P17  1  0.789364  0.748137  0.884898  1
  P  P18  1  0.781405  0.445840  0.102754  1
  P  P19  1  0.571506  0.858126  1.044183  1
  P  P20  1  0.789364  0.751863  0.384898  1
  P  P21  1  0.781405  0.054160  0.602754  1
  P  P22  1  0.571506  0.641874  0.544183  1
  P  P23  1  0.098126  0.158096  0.300364  1
  P  P24  1  0.098126  0.341904  0.800364  1
