# generated using pymatgen
data_LiCuO2
_symmetry_space_group_name_H-M   'P 1'
_cell_length_a   5.36356377
_cell_length_b   5.44972812
_cell_length_c   6.79641547
_cell_angle_alpha   99.00871909
_cell_angle_beta   78.92716682
_cell_angle_gamma   74.48703779
_symmetry_Int_Tables_number   1
_chemical_formula_structural   LiCuO2
_chemical_formula_sum   'Li4 Cu4 O8'
_cell_volume   183.25965624
_cell_formula_units_Z   4
loop_
 _symmetry_equiv_pos_site_id
 _symmetry_equiv_pos_as_xyz
  1  'x, y, z'
loop_
 _atom_site_type_symbol
 _atom_site_label
 _atom_site_symmetry_multiplicity
 _atom_site_fract_x
 _atom_site_fract_y
 _atom_site_fract_z
 _atom_site_occupancy
  Li  Li1  1  0.473998  0.787358  0.443216  1
  Li  Li2  1  0.573774  0.347810  0.148605  1
  Li  Li3  1  0.421285  0.103970  0.851536  1
  Li  Li4  1  0.417981  0.615203  0.870540  1
  Cu  Cu5  1  0.035627  0.558052  0.255907  1
  Cu  Cu6  1  0.039035  0.057191  0.259453  1
  Cu  Cu7  1  0.944051  0.947679  0.741053  1
  Cu  Cu8  1  0.950662  0.445299  0.738120  1
  O  O9  1  0.265979  0.225523  0.141440  1
  O  O10  1  0.290862  0.723169  0.183596  1
  O  O11  1  0.195198  0.622801  0.670276  1
  O  O12  1  0.194505  0.112372  0.666907  1
  O  O13  1  0.790198  0.389018  0.334787  1
  O  O14  1  0.808637  0.889000  0.367759  1
  O  O15  1  0.703370  0.283336  0.843520  1
  O  O16  1  0.700939  0.771670  0.807186  1
