# generated using pymatgen
data_Li2B4O7
_symmetry_space_group_name_H-M   'P 1'
_cell_length_a   9.45041959
_cell_length_b   9.45041937
_cell_length_c   9.45041975
_cell_angle_alpha   104.28153303
_cell_angle_beta   112.12673788
_cell_angle_gamma   112.12673998
_symmetry_Int_Tables_number   1
_chemical_formula_structural   Li2B4O7
_chemical_formula_sum   'Li8 B16 O28'
_cell_volume   645.77829980
_cell_formula_units_Z   4
loop_
 _symmetry_equiv_pos_site_id
 _symmetry_equiv_pos_as_xyz
  1  'x, y, z'
loop_
 _atom_site_type_symbol
 _atom_site_label
 _atom_site_symmetry_multiplicity
 _atom_site_fract_x
 _atom_site_fract_y
 _atom_site_fract_z
 _atom_site_occupancy
  Li  Li1  1  0.642142  0.618340  0.615358  1
  Li  Li2  1  0.497018  0.365358  0.223216  1
  Li  Li3  1  0.357858  0.973216  0.976198  1
  Li  Li4  1  0.502982  0.726198  0.868340  1
  Li  Li5  1  0.002982  0.118340  0.476198  1
  Li  Li6  1  0.997018  0.473216  0.115358  1
  Li  Li7  1  0.142142  0.865358  0.368340  1
  Li  Li8  1  0.857858  0.226198  0.723216  1
  B  B9  1  0.477041  0.065814  0.294696  1
  B  B10  1  0.870471  0.575778  0.562645  1
  B  B11  1  0.486867  0.312645  0.942175  1
  B  B12  1  0.228883  0.317655  0.794696  1
  B  B13  1  0.013133  0.075778  0.205307  1
  B  B14  1  0.271117  0.338772  0.315814  1
  B  B15  1  0.986867  0.192175  0.062645  1
  B  B16  1  0.370471  0.812645  0.325778  1
  B  B17  1  0.513133  0.455307  0.825778  1
  B  B18  1  0.522959  0.817655  0.588772  1
  B  B19  1  0.129529  0.692175  0.705307  1
  B  B20  1  0.629529  0.955307  0.442175  1
  B  B21  1  0.022959  0.838772  0.567655  1
  B  B22  1  0.977041  0.544696  0.815814  1
  B  B23  1  0.728883  0.044696  0.067655  1
  B  B24  1  0.771117  0.565814  0.088772  1
  O  O25  1  0.321636  0.272305  0.922255  1
  O  O26  1  0.855400  0.028625  0.205065  1
  O  O27  1  0.178364  0.200669  0.350620  1
  O  O28  1  0.823560  0.528625  0.673225  1
  O  O29  1  0.454630  0.146758  0.203347  1
  O  O30  1  0.676440  0.955065  0.599665  1
  O  O31  1  0.500000  0.796333  0.296333  1
  O  O32  1  0.943411  0.646758  0.192128  1
  O  O33  1  0.045370  0.942128  0.498718  1
  O  O34  1  0.323560  0.923225  0.278625  1
  O  O35  1  0.649951  0.100620  0.422255  1
  O  O36  1  0.144600  0.349665  0.173225  1
  O  O37  1  0.149951  0.672255  0.850620  1
  O  O38  1  0.954630  0.453347  0.896758  1
  O  O39  1  0.644600  0.423225  0.099665  1
  O  O40  1  0.556589  0.953347  -0.001282  1
  O  O41  1  1.000000  0.046333  0.046333  1
  O  O42  1  0.545370  0.748718  0.692128  1
  O  O43  1  0.500000  0.296333  0.796333  1
  O  O44  1  0.850049  0.700669  0.522305  1
  O  O45  1  0.176440  0.849665  0.705065  1
  O  O46  1  0.056589  0.248718  0.703347  1
  O  O47  1  0.678364  0.600620  0.950669  1
  O  O48  1  0.821636  0.172255  0.022305  1
  O  O49  1  0.443411  0.442128  0.396758  1
  O  O50  1  0.355400  0.455065  0.778625  1
  O  O51  1  1.000000  0.546333  0.546333  1
  O  O52  1  0.350049  0.772305  0.450669  1
