# generated using pymatgen
data_LiMg149
_symmetry_space_group_name_H-M   'P 1'
_cell_length_a   15.85019846
_cell_length_b   15.85099592
_cell_length_c   15.79465479
_cell_angle_alpha   90.00005353
_cell_angle_beta   89.99977202
_cell_angle_gamma   119.97384587
_symmetry_Int_Tables_number   1
_chemical_formula_structural   LiMg149
_chemical_formula_sum   'Li1 Mg149'
_cell_volume   3437.52942946
_cell_formula_units_Z   1
loop_
 _symmetry_equiv_pos_site_id
 _symmetry_equiv_pos_as_xyz
  1  'x, y, z'
loop_
 _atom_site_type_symbol
 _atom_site_label
 _atom_site_symmetry_multiplicity
 _atom_site_fract_x
 _atom_site_fract_y
 _atom_site_fract_z
 _atom_site_occupancy
  Li  Li1  1  0.000000  0.999998  0.999997  1
  Mg  Mg2  1  0.198755  0.198762  0.999999  1
  Mg  Mg3  1  0.000000  0.198749  1.000000  1
  Mg  Mg4  1  0.800209  0.199793  0.999998  1
  Mg  Mg5  1  0.399581  0.199788  0.999998  1
  Mg  Mg6  1  0.599922  0.199843  0.999998  1
  Mg  Mg7  1  0.399541  0.399626  0.999998  1
  Mg  Mg8  1  0.000080  0.399630  0.999998  1
  Mg  Mg9  1  0.199841  0.399680  0.999998  1
  Mg  Mg10  1  0.800158  0.400077  0.999999  1
  Mg  Mg11  1  0.599921  0.400079  0.999997  1
  Mg  Mg12  1  0.199955  0.599980  0.999998  1
  Mg  Mg13  1  0.400018  0.599981  0.999997  1
  Mg  Mg14  1  0.800214  0.600421  0.999998  1
  Mg  Mg15  1  0.600373  0.600460  0.999998  1
  Mg  Mg16  1  0.000084  0.600456  0.999998  1
  Mg  Mg17  1  0.400019  0.800046  0.999998  1
  Mg  Mg18  1  0.600322  0.800160  0.999998  1
  Mg  Mg19  1  0.199840  0.800160  0.999998  1
  Mg  Mg20  1  0.801241  0.801245  0.999999  1
  Mg  Mg21  1  0.000005  0.801251  1.000000  1
  Mg  Mg22  1  0.600371  0.999919  0.999998  1
  Mg  Mg23  1  0.399546  0.999917  0.999998  1
  Mg  Mg24  1  0.801250  0.999999  0.999999  1
  Mg  Mg25  1  0.198749  0.999993  0.999999  1
  Mg  Mg26  1  0.066250  0.132496  0.165403  1
  Mg  Mg27  1  0.867504  0.933752  0.165403  1
  Mg  Mg28  1  0.066250  0.933754  0.165400  1
  Mg  Mg29  1  0.666667  0.333331  0.166533  1
  Mg  Mg30  1  0.466544  0.133249  0.166591  1
  Mg  Mg31  1  0.666713  0.133253  0.166589  1
  Mg  Mg32  1  0.466543  0.333287  0.166595  1
  Mg  Mg33  1  0.866747  0.333286  0.166589  1
  Mg  Mg34  1  0.666713  0.533456  0.166595  1
  Mg  Mg35  1  0.866748  0.533457  0.166591  1
  Mg  Mg36  1  0.866724  0.133272  0.166566  1
  Mg  Mg37  1  0.266545  0.133274  0.166572  1
  Mg  Mg38  1  0.866723  0.733454  0.166572  1
  Mg  Mg39  1  0.266433  0.333083  0.166598  1
  Mg  Mg40  1  0.066650  0.333085  0.166596  1
  Mg  Mg41  1  0.066650  0.733557  0.166595  1
  Mg  Mg42  1  0.666916  0.733565  0.166599  1
  Mg  Mg43  1  0.666918  0.933353  0.166597  1
  Mg  Mg44  1  0.266443  0.933354  0.166595  1
  Mg  Mg45  1  0.066666  0.533336  0.166645  1
  Mg  Mg46  1  0.466667  0.533335  0.166650  1
  Mg  Mg47  1  0.466665  0.933335  0.166645  1
  Mg  Mg48  1  0.266634  0.533265  0.166742  1
  Mg  Mg49  1  0.266636  0.733362  0.166739  1
  Mg  Mg50  1  0.466734  0.733366  0.166742  1
  Mg  Mg51  1  0.999998  0.000000  0.332706  1
  Mg  Mg52  1  0.800079  0.999885  0.332913  1
  Mg  Mg53  1  0.199809  0.999889  0.332915  1
  Mg  Mg54  1  0.199811  0.199923  0.332913  1
  Mg  Mg55  1  0.000114  0.199920  0.332913  1
  Mg  Mg56  1  0.800079  0.800190  0.332912  1
  Mg  Mg57  1  0.000107  0.800192  0.332914  1
  Mg  Mg58  1  0.399971  0.000090  0.333269  1
  Mg  Mg59  1  0.600116  0.000089  0.333269  1
  Mg  Mg60  1  0.399964  0.399876  0.333265  1
  Mg  Mg61  1  0.999910  0.399883  0.333268  1
  Mg  Mg62  1  0.999911  0.600030  0.333268  1
  Mg  Mg63  1  0.600123  0.600038  0.333265  1
  Mg  Mg64  1  0.600000  0.200005  0.333346  1
  Mg  Mg65  1  0.600002  0.399998  0.333340  1
  Mg  Mg66  1  0.799995  0.399999  0.333345  1
  Mg  Mg67  1  0.399977  0.199989  0.333339  1
  Mg  Mg68  1  0.800009  0.199994  0.333338  1
  Mg  Mg69  1  0.800012  0.600024  0.333339  1
  Mg  Mg70  1  0.200051  0.400100  0.333449  1
  Mg  Mg71  1  0.200048  0.799951  0.333451  1
  Mg  Mg72  1  0.599902  0.799950  0.333448  1
  Mg  Mg73  1  0.199935  0.599969  0.333578  1
  Mg  Mg74  1  0.400030  0.599968  0.333576  1
  Mg  Mg75  1  0.400030  0.800065  0.333579  1
  Mg  Mg76  1  0.066634  0.133263  0.500003  1
  Mg  Mg77  1  0.266630  0.133315  0.500002  1
  Mg  Mg78  1  0.866683  0.133313  0.500003  1
  Mg  Mg79  1  0.666722  0.133503  0.500002  1
  Mg  Mg80  1  0.466784  0.133497  0.500002  1
  Mg  Mg81  1  0.066562  0.333199  0.500002  1
  Mg  Mg82  1  0.266637  0.333199  0.500002  1
  Mg  Mg83  1  0.866497  0.333276  0.500003  1
  Mg  Mg84  1  0.466779  0.333279  0.500001  1
  Mg  Mg85  1  0.666670  0.333327  0.500003  1
  Mg  Mg86  1  0.866501  0.533217  0.500003  1
  Mg  Mg87  1  0.666720  0.533219  0.500001  1
  Mg  Mg88  1  0.066566  0.533286  0.500002  1
  Mg  Mg89  1  0.466718  0.533286  0.500001  1
  Mg  Mg90  1  0.266670  0.533333  0.500002  1
  Mg  Mg91  1  0.266670  0.733330  0.500002  1
  Mg  Mg92  1  0.466665  0.733329  0.500001  1
  Mg  Mg93  1  0.866683  0.733369  0.500002  1
  Mg  Mg94  1  0.666797  0.733361  0.500002  1
  Mg  Mg95  1  0.066564  0.733358  0.500002  1
  Mg  Mg96  1  0.866736  0.933368  0.500002  1
  Mg  Mg97  1  0.066636  0.933368  0.500003  1
  Mg  Mg98  1  0.666803  0.933441  0.500002  1
  Mg  Mg99  1  0.266642  0.933441  0.500001  1
  Mg  Mg100  1  0.466715  0.933434  0.500001  1
  Mg  Mg101  1  0.199935  0.599969  0.666424  1
  Mg  Mg102  1  0.400030  0.599968  0.666427  1
  Mg  Mg103  1  0.400030  0.800065  0.666424  1
  Mg  Mg104  1  0.200052  0.400101  0.666553  1
  Mg  Mg105  1  0.200049  0.799950  0.666551  1
  Mg  Mg106  1  0.599902  0.799950  0.666553  1
  Mg  Mg107  1  0.399978  0.199990  0.666664  1
  Mg  Mg108  1  0.800009  0.199995  0.666664  1
  Mg  Mg109  1  0.800013  0.600024  0.666664  1
  Mg  Mg110  1  0.600001  0.200006  0.666658  1
  Mg  Mg111  1  0.600002  0.399997  0.666664  1
  Mg  Mg112  1  0.799995  0.399999  0.666659  1
  Mg  Mg113  1  0.399970  0.000090  0.666733  1
  Mg  Mg114  1  0.600117  0.000089  0.666734  1
  Mg  Mg115  1  0.399964  0.399876  0.666737  1
  Mg  Mg116  1  0.999909  0.399882  0.666734  1
  Mg  Mg117  1  0.999911  0.600030  0.666734  1
  Mg  Mg118  1  0.600123  0.600038  0.666737  1
  Mg  Mg119  1  0.800079  0.999885  0.667088  1
  Mg  Mg120  1  0.199808  0.999889  0.667087  1
  Mg  Mg121  1  0.199810  0.199923  0.667089  1
  Mg  Mg122  1  0.000114  0.199920  0.667088  1
  Mg  Mg123  1  0.800080  0.800190  0.667089  1
  Mg  Mg124  1  0.000108  0.800193  0.667087  1
  Mg  Mg125  1  0.999999  0.000000  0.667296  1
  Mg  Mg126  1  0.266635  0.533266  0.833256  1
  Mg  Mg127  1  0.266636  0.733362  0.833260  1
  Mg  Mg128  1  0.466733  0.733365  0.833257  1
  Mg  Mg129  1  0.066667  0.533336  0.833354  1
  Mg  Mg130  1  0.466667  0.533336  0.833349  1
  Mg  Mg131  1  0.466665  0.933334  0.833354  1
  Mg  Mg132  1  0.266434  0.333083  0.833400  1
  Mg  Mg133  1  0.066649  0.333086  0.833401  1
  Mg  Mg134  1  0.066649  0.733556  0.833403  1
  Mg  Mg135  1  0.666915  0.733563  0.833399  1
  Mg  Mg136  1  0.666917  0.933354  0.833401  1
  Mg  Mg137  1  0.266444  0.933355  0.833404  1
  Mg  Mg138  1  0.866723  0.133272  0.833431  1
  Mg  Mg139  1  0.266545  0.133275  0.833427  1
  Mg  Mg140  1  0.866722  0.733454  0.833426  1
  Mg  Mg141  1  0.466545  0.133250  0.833407  1
  Mg  Mg142  1  0.666712  0.133254  0.833409  1
  Mg  Mg143  1  0.466544  0.333287  0.833404  1
  Mg  Mg144  1  0.866746  0.333286  0.833408  1
  Mg  Mg145  1  0.666713  0.533455  0.833404  1
  Mg  Mg146  1  0.866748  0.533456  0.833406  1
  Mg  Mg147  1  0.666666  0.333331  0.833464  1
  Mg  Mg148  1  0.066250  0.132496  0.834595  1
  Mg  Mg149  1  0.867504  0.933752  0.834595  1
  Mg  Mg150  1  0.066250  0.933755  0.834597  1
