# generated using pymatgen
data_LiCuO2
_symmetry_space_group_name_H-M   'P 1'
_cell_length_a   5.07081846
_cell_length_b   5.07081845
_cell_length_c   5.07081841
_cell_angle_alpha   33.65697531
_cell_angle_beta   33.65697622
_cell_angle_gamma   33.65698044
_symmetry_Int_Tables_number   1
_chemical_formula_structural   LiCuO2
_chemical_formula_sum   'Li1 Cu1 O2'
_cell_volume   35.67895306
_cell_formula_units_Z   1
loop_
 _symmetry_equiv_pos_site_id
 _symmetry_equiv_pos_as_xyz
  1  'x, y, z'
loop_
 _atom_site_type_symbol
 _atom_site_label
 _atom_site_symmetry_multiplicity
 _atom_site_fract_x
 _atom_site_fract_y
 _atom_site_fract_z
 _atom_site_occupancy
  Li  Li1  1  0.500001  0.500001  0.499999  1
  O  O2  1  0.256494  0.256492  0.256493  1
  O  O3  1  0.743509  0.743506  0.743507  1
  Cu  Cu4  1  0.000000  0.000000  0.000000  1
