# generated using pymatgen
data_LiMg7
_symmetry_space_group_name_H-M   'P 1'
_cell_length_a   6.33194424
_cell_length_b   6.33194373
_cell_length_c   5.20357526
_cell_angle_alpha   90.00000000
_cell_angle_beta   90.00000000
_cell_angle_gamma   120.00000266
_symmetry_Int_Tables_number   1
_chemical_formula_structural   LiMg7
_chemical_formula_sum   'Li1 Mg7'
_cell_volume   180.67854681
_cell_formula_units_Z   1
loop_
 _symmetry_equiv_pos_site_id
 _symmetry_equiv_pos_as_xyz
  1  'x, y, z'
loop_
 _atom_site_type_symbol
 _atom_site_label
 _atom_site_symmetry_multiplicity
 _atom_site_fract_x
 _atom_site_fract_y
 _atom_site_fract_z
 _atom_site_occupancy
  Li  Li1  1  0.166667  0.333333  0.250000  1
  Mg  Mg2  1  0.166857  0.833428  0.250000  1
  Mg  Mg3  1  0.666572  0.333143  0.250000  1
  Mg  Mg4  1  0.666572  0.833428  0.250000  1
  Mg  Mg5  1  0.332654  0.167346  0.750000  1
  Mg  Mg6  1  0.332654  0.665309  0.750000  1
  Mg  Mg7  1  0.834691  0.167346  0.750000  1
  Mg  Mg8  1  0.833333  0.666667  0.750000  1
