# generated using pymatgen
data_K49Tl108
_symmetry_space_group_name_H-M   'P 1'
_cell_length_a   17.77957643
_cell_length_b   17.77957643
_cell_length_c   17.77957643
_cell_angle_alpha   90.00000000
_cell_angle_beta   90.00000000
_cell_angle_gamma   90.00000000
_symmetry_Int_Tables_number   1
_chemical_formula_structural   K49Tl108
_chemical_formula_sum   'K49 Tl108'
_cell_volume   5620.36125405
_cell_formula_units_Z   1
loop_
 _symmetry_equiv_pos_site_id
 _symmetry_equiv_pos_as_xyz
  1  'x, y, z'
loop_
 _atom_site_type_symbol
 _atom_site_label
 _atom_site_symmetry_multiplicity
 _atom_site_fract_x
 _atom_site_fract_y
 _atom_site_fract_z
 _atom_site_occupancy
  K  K1  1  0.000000  0.877250  0.695015  1
  K  K2  1  0.205127  0.634648  0.500000  1
  K  K3  1  0.877250  0.695015  0.000000  1
  K  K4  1  0.812704  0.812704  0.812704  1
  K  K5  1  0.365352  0.500000  0.205127  1
  K  K6  1  0.187296  0.187296  0.187296  1
  K  K7  1  0.634648  0.500000  0.794873  1
  K  K8  1  0.000000  0.122750  0.304985  1
  K  K9  1  0.500000  0.794873  0.634648  1
  K  K10  1  0.689556  0.689556  0.310444  1
  K  K11  1  0.689556  0.689556  0.689556  1
  K  K12  1  0.794873  0.634648  0.500000  1
  K  K13  1  0.500000  0.500000  0.000000  1
  K  K14  1  0.000000  0.229134  0.500000  1
  K  K15  1  0.812704  0.187296  0.187296  1
  K  K16  1  0.187296  0.812704  0.812704  1
  K  K17  1  0.365352  0.500000  0.794873  1
  K  K18  1  0.500000  0.205127  0.634648  1
  K  K19  1  0.310444  0.310444  0.310444  1
  K  K20  1  0.500000  0.000000  0.500000  1
  K  K21  1  0.500000  0.794873  0.365352  1
  K  K22  1  0.634648  0.500000  0.205127  1
  K  K23  1  0.689556  0.310444  0.689556  1
  K  K24  1  0.187296  0.812704  0.187296  1
  K  K25  1  0.187296  0.187296  0.812704  1
  K  K26  1  0.689556  0.310444  0.310444  1
  K  K27  1  0.812704  0.187296  0.812704  1
  K  K28  1  0.304985  0.000000  0.122750  1
  K  K29  1  0.695015  0.000000  0.122750  1
  K  K30  1  0.310444  0.310444  0.689556  1
  K  K31  1  0.229134  0.500000  0.000000  1
  K  K32  1  0.812704  0.812704  0.187296  1
  K  K33  1  0.770866  0.500000  0.000000  1
  K  K34  1  0.500000  0.000000  0.770866  1
  K  K35  1  0.000000  0.500000  0.500000  1
  K  K36  1  0.310444  0.689556  0.689556  1
  K  K37  1  0.205127  0.365352  0.500000  1
  K  K38  1  0.000000  0.122750  0.695015  1
  K  K39  1  0.877250  0.304985  0.000000  1
  K  K40  1  0.122750  0.695015  0.000000  1
  K  K41  1  0.500000  0.205127  0.365352  1
  K  K42  1  0.500000  0.000000  0.229134  1
  K  K43  1  0.304985  0.000000  0.877250  1
  K  K44  1  0.310444  0.689556  0.310444  1
  K  K45  1  0.000000  0.877250  0.304985  1
  K  K46  1  0.695015  0.000000  0.877250  1
  K  K47  1  0.794873  0.365352  0.500000  1
  K  K48  1  0.000000  0.770866  0.500000  1
  K  K49  1  0.122750  0.304985  0.000000  1
  Tl  Tl50  1  0.178616  0.162842  0.408037  1
  Tl  Tl51  1  0.591963  0.821384  0.162842  1
  Tl  Tl52  1  0.500000  0.340652  0.822841  1
  Tl  Tl53  1  0.334244  0.091574  0.669187  1
  Tl  Tl54  1  0.821384  0.162842  0.408037  1
  Tl  Tl55  1  0.822841  0.500000  0.340652  1
  Tl  Tl56  1  0.091574  0.330813  0.665756  1
  Tl  Tl57  1  0.500000  0.340652  0.177159  1
  Tl  Tl58  1  0.908426  0.330813  0.665756  1
  Tl  Tl59  1  0.173906  0.000000  0.318482  1
  Tl  Tl60  1  0.162842  0.408037  0.178616  1
  Tl  Tl61  1  0.318482  0.826094  0.000000  1
  Tl  Tl62  1  0.821384  0.837158  0.408037  1
  Tl  Tl63  1  0.334244  0.908426  0.669187  1
  Tl  Tl64  1  0.000000  0.500000  0.091660  1
  Tl  Tl65  1  0.276311  0.000000  0.500000  1
  Tl  Tl66  1  0.500000  0.276311  0.000000  1
  Tl  Tl67  1  0.178616  0.837158  0.408037  1
  Tl  Tl68  1  0.665756  0.908426  0.669187  1
  Tl  Tl69  1  0.669187  0.334244  0.908426  1
  Tl  Tl70  1  0.348690  0.500000  0.590782  1
  Tl  Tl71  1  0.821384  0.837158  0.591963  1
  Tl  Tl72  1  0.837158  0.591963  0.821384  1
  Tl  Tl73  1  0.826094  0.000000  0.318482  1
  Tl  Tl74  1  0.826094  0.000000  0.681518  1
  Tl  Tl75  1  0.500000  0.908340  0.000000  1
  Tl  Tl76  1  0.173906  0.000000  0.681518  1
  Tl  Tl77  1  0.665756  0.091574  0.330813  1
  Tl  Tl78  1  0.000000  0.681518  0.173906  1
  Tl  Tl79  1  0.162842  0.591963  0.178616  1
  Tl  Tl80  1  0.000000  0.318482  0.173906  1
  Tl  Tl81  1  0.500000  0.659348  0.177159  1
  Tl  Tl82  1  0.177159  0.500000  0.340652  1
  Tl  Tl83  1  0.000000  0.681518  0.826094  1
  Tl  Tl84  1  0.669187  0.665756  0.908426  1
  Tl  Tl85  1  0.665756  0.908426  0.330813  1
  Tl  Tl86  1  0.334244  0.091574  0.330813  1
  Tl  Tl87  1  0.907816  0.000000  0.151017  1
  Tl  Tl88  1  0.409218  0.651310  0.500000  1
  Tl  Tl89  1  0.500000  0.590782  0.348690  1
  Tl  Tl90  1  0.665756  0.091574  0.669187  1
  Tl  Tl91  1  0.500000  0.590782  0.651310  1
  Tl  Tl92  1  0.092184  0.000000  0.151017  1
  Tl  Tl93  1  0.318482  0.173906  0.000000  1
  Tl  Tl94  1  0.340652  0.822841  0.500000  1
  Tl  Tl95  1  0.651310  0.500000  0.590782  1
  Tl  Tl96  1  0.330813  0.334244  0.091574  1
  Tl  Tl97  1  0.848983  0.092184  0.000000  1
  Tl  Tl98  1  0.500000  0.723689  0.000000  1
  Tl  Tl99  1  0.669187  0.665756  0.091574  1
  Tl  Tl100  1  0.500000  0.659348  0.822841  1
  Tl  Tl101  1  0.681518  0.173906  0.000000  1
  Tl  Tl102  1  0.408037  0.821384  0.162842  1
  Tl  Tl103  1  0.669187  0.334244  0.091574  1
  Tl  Tl104  1  0.334244  0.908426  0.330813  1
  Tl  Tl105  1  0.837158  0.591963  0.178616  1
  Tl  Tl106  1  0.330813  0.334244  0.908426  1
  Tl  Tl107  1  0.822841  0.500000  0.659348  1
  Tl  Tl108  1  0.000000  0.318482  0.826094  1
  Tl  Tl109  1  0.659348  0.822841  0.500000  1
  Tl  Tl110  1  0.091660  0.000000  0.500000  1
  Tl  Tl111  1  0.162842  0.591963  0.821384  1
  Tl  Tl112  1  0.091574  0.669187  0.665756  1
  Tl  Tl113  1  0.837158  0.408037  0.821384  1
  Tl  Tl114  1  0.340652  0.177159  0.500000  1
  Tl  Tl115  1  0.092184  0.000000  0.848983  1
  Tl  Tl116  1  0.591963  0.821384  0.837158  1
  Tl  Tl117  1  0.330813  0.665756  0.091574  1
  Tl  Tl118  1  0.151017  0.092184  0.000000  1
  Tl  Tl119  1  0.091574  0.669187  0.334244  1
  Tl  Tl120  1  0.907816  0.000000  0.848983  1
  Tl  Tl121  1  0.348690  0.500000  0.409218  1
  Tl  Tl122  1  0.821384  0.162842  0.591963  1
  Tl  Tl123  1  0.408037  0.821384  0.837158  1
  Tl  Tl124  1  0.000000  0.151017  0.092184  1
  Tl  Tl125  1  0.908426  0.330813  0.334244  1
  Tl  Tl126  1  0.848983  0.907816  0.000000  1
  Tl  Tl127  1  0.591963  0.178616  0.837158  1
  Tl  Tl128  1  0.178616  0.162842  0.591963  1
  Tl  Tl129  1  0.409218  0.348690  0.500000  1
  Tl  Tl130  1  0.408037  0.178616  0.837158  1
  Tl  Tl131  1  0.091574  0.330813  0.334244  1
  Tl  Tl132  1  0.000000  0.848983  0.907816  1
  Tl  Tl133  1  0.178616  0.837158  0.591963  1
  Tl  Tl134  1  0.162842  0.408037  0.821384  1
  Tl  Tl135  1  0.000000  0.500000  0.276311  1
  Tl  Tl136  1  0.908340  0.000000  0.500000  1
  Tl  Tl137  1  0.500000  0.091660  0.000000  1
  Tl  Tl138  1  0.177159  0.500000  0.659348  1
  Tl  Tl139  1  0.681518  0.826094  0.000000  1
  Tl  Tl140  1  0.408037  0.178616  0.162842  1
  Tl  Tl141  1  0.723689  0.000000  0.500000  1
  Tl  Tl142  1  0.000000  0.848983  0.092184  1
  Tl  Tl143  1  0.908426  0.669187  0.665756  1
  Tl  Tl144  1  0.659348  0.177159  0.500000  1
  Tl  Tl145  1  0.000000  0.500000  0.908340  1
  Tl  Tl146  1  0.837158  0.408037  0.178616  1
  Tl  Tl147  1  0.000000  0.151017  0.907816  1
  Tl  Tl148  1  0.908426  0.669187  0.334244  1
  Tl  Tl149  1  0.591963  0.178616  0.162842  1
  Tl  Tl150  1  0.500000  0.409218  0.348690  1
  Tl  Tl151  1  0.000000  0.500000  0.723689  1
  Tl  Tl152  1  0.590782  0.651310  0.500000  1
  Tl  Tl153  1  0.151017  0.907816  0.000000  1
  Tl  Tl154  1  0.651310  0.500000  0.409218  1
  Tl  Tl155  1  0.500000  0.409218  0.651310  1
  Tl  Tl156  1  0.590782  0.348690  0.500000  1
  Tl  Tl157  1  0.330813  0.665756  0.908426  1
