# generated using pymatgen
data_LiErO2
_symmetry_space_group_name_H-M   'P 1'
_cell_length_a   6.13916320
_cell_length_b   6.20262413
_cell_length_c   6.16562453
_cell_angle_alpha   90.00000000
_cell_angle_beta   90.00000000
_cell_angle_gamma   119.10933612
_symmetry_Int_Tables_number   1
_chemical_formula_structural   LiErO2
_chemical_formula_sum   'Li4 Er4 O8'
_cell_volume   205.12592666
_cell_formula_units_Z   4
loop_
 _symmetry_equiv_pos_site_id
 _symmetry_equiv_pos_as_xyz
  1  'x, y, z'
loop_
 _atom_site_type_symbol
 _atom_site_label
 _atom_site_symmetry_multiplicity
 _atom_site_fract_x
 _atom_site_fract_y
 _atom_site_fract_z
 _atom_site_occupancy
  Li  Li1  1  0.715893  0.947085  0.349176  1
  Li  Li2  1  0.284107  0.552915  0.849176  1
  Li  Li3  1  0.284107  0.052915  0.650824  1
  Li  Li4  1  0.715893  0.447085  0.150824  1
  O  O5  1  0.004297  0.333648  0.664411  1
  O  O6  1  0.544620  0.734816  0.610591  1
  O  O7  1  0.995703  0.166352  0.164411  1
  O  O8  1  0.995703  0.666352  0.335589  1
  O  O9  1  0.455380  0.265184  0.389409  1
  O  O10  1  0.455380  0.765184  0.110591  1
  O  O11  1  0.544620  0.234816  0.889409  1
  O  O12  1  0.004297  0.833648  0.835589  1
  Er  Er13  1  0.763639  0.017453  0.870722  1
  Er  Er14  1  0.763639  0.517453  0.629278  1
  Er  Er15  1  0.236361  0.982547  0.129278  1
  Er  Er16  1  0.236361  0.482547  0.370722  1
