# generated using pymatgen
data_LiEuO2
_symmetry_space_group_name_H-M   'P 1'
_cell_length_a   11.47968625
_cell_length_b   3.48349708
_cell_length_c   5.41251853
_cell_angle_alpha   90.00000000
_cell_angle_beta   90.00000000
_cell_angle_gamma   90.00000000
_symmetry_Int_Tables_number   1
_chemical_formula_structural   LiEuO2
_chemical_formula_sum   'Li4 Eu4 O8'
_cell_volume   216.44365824
_cell_formula_units_Z   4
loop_
 _symmetry_equiv_pos_site_id
 _symmetry_equiv_pos_as_xyz
  1  'x, y, z'
loop_
 _atom_site_type_symbol
 _atom_site_label
 _atom_site_symmetry_multiplicity
 _atom_site_fract_x
 _atom_site_fract_y
 _atom_site_fract_z
 _atom_site_occupancy
  Eu  Eu1  1  0.860501  0.250000  0.457630  1
  Eu  Eu2  1  0.360501  0.250000  0.042370  1
  Eu  Eu3  1  0.139499  0.750000  0.542370  1
  Eu  Eu4  1  0.639499  0.750000  0.957630  1
  Li  Li5  1  0.565578  0.250000  0.403772  1
  Li  Li6  1  0.065578  0.250000  0.096228  1
  Li  Li7  1  0.434422  0.750000  0.596228  1
  Li  Li8  1  0.934422  0.750000  0.903772  1
  O  O9  1  0.525199  0.250000  0.753767  1
  O  O10  1  0.025199  0.250000  0.746233  1
  O  O11  1  0.474801  0.750000  0.246233  1
  O  O12  1  0.974801  0.750000  0.253767  1
  O  O13  1  0.702342  0.250000  0.199776  1
  O  O14  1  0.202342  0.250000  0.300224  1
  O  O15  1  0.297658  0.750000  0.800224  1
  O  O16  1  0.797658  0.750000  0.699776  1
