# generated using pymatgen
data_LiEu3O4
_symmetry_space_group_name_H-M   'P 1'
_cell_length_a   11.74007469
_cell_length_b   11.51308338
_cell_length_c   3.45547710
_cell_angle_alpha   90.00000000
_cell_angle_beta   90.00000000
_cell_angle_gamma   90.00000000
_symmetry_Int_Tables_number   1
_chemical_formula_structural   LiEu3O4
_chemical_formula_sum   'Li4 Eu12 O16'
_cell_volume   467.05769209
_cell_formula_units_Z   4
loop_
 _symmetry_equiv_pos_site_id
 _symmetry_equiv_pos_as_xyz
  1  'x, y, z'
loop_
 _atom_site_type_symbol
 _atom_site_label
 _atom_site_symmetry_multiplicity
 _atom_site_fract_x
 _atom_site_fract_y
 _atom_site_fract_z
 _atom_site_occupancy
  Li  Li1  1  0.594588  0.651629  0.250000  1
  Li  Li2  1  0.905412  0.151629  0.250000  1
  Li  Li3  1  0.405412  0.348371  0.750000  1
  Li  Li4  1  0.094588  0.848371  0.750000  1
  Eu  Eu5  1  0.295756  0.858846  0.250000  1
  Eu  Eu6  1  0.204244  0.358846  0.250000  1
  Eu  Eu7  1  0.704244  0.141154  0.750000  1
  Eu  Eu8  1  0.795756  0.641154  0.750000  1
  Eu  Eu9  1  0.888930  0.898029  0.250000  1
  Eu  Eu10  1  0.611070  0.398029  0.250000  1
  Eu  Eu11  1  0.111070  0.101971  0.750000  1
  Eu  Eu12  1  0.388930  0.601971  0.750000  1
  Eu  Eu13  1  0.072723  0.631231  0.250000  1
  Eu  Eu14  1  0.427277  0.131231  0.250000  1
  Eu  Eu15  1  0.927277  0.368769  0.750000  1
  Eu  Eu16  1  0.572723  0.868769  0.750000  1
  O  O17  1  0.458834  0.739446  0.250000  1
  O  O18  1  0.041166  0.239446  0.250000  1
  O  O19  1  0.541166  0.260554  0.750000  1
  O  O20  1  0.958834  0.760554  0.750000  1
  O  O21  1  0.105637  0.947376  0.250000  1
  O  O22  1  0.394363  0.447376  0.250000  1
  O  O23  1  0.894362  0.052624  0.750000  1
  O  O24  1  0.605638  0.552624  0.750000  1
  O  O25  1  0.883266  0.520380  0.250000  1
  O  O26  1  0.616734  0.020380  0.250000  1
  O  O27  1  0.116734  0.479620  0.750000  1
  O  O28  1  0.383266  0.979620  0.750000  1
  O  O29  1  0.717486  0.768055  0.250000  1
  O  O30  1  0.782514  0.268055  0.250000  1
  O  O31  1  0.282514  0.231945  0.750000  1
  O  O32  1  0.217486  0.731945  0.750000  1
