# generated using pymatgen
data_LiO2
_symmetry_space_group_name_H-M   'P 1'
_cell_length_a   3.28641410
_cell_length_b   3.28641427
_cell_length_c   3.28641438
_cell_angle_alpha   59.59409157
_cell_angle_beta   59.59407126
_cell_angle_gamma   59.59409448
_symmetry_Int_Tables_number   1
_chemical_formula_structural   LiO2
_chemical_formula_sum   'Li1 O2'
_cell_volume   24.86717157
_cell_formula_units_Z   1
loop_
 _symmetry_equiv_pos_site_id
 _symmetry_equiv_pos_as_xyz
  1  'x, y, z'
loop_
 _atom_site_type_symbol
 _atom_site_label
 _atom_site_symmetry_multiplicity
 _atom_site_fract_x
 _atom_site_fract_y
 _atom_site_fract_z
 _atom_site_occupancy
  Li  Li1  1  0.500001  0.500001  0.499999  1
  O  O2  1  0.250911  0.250908  0.250909  1
  O  O3  1  0.749093  0.749090  0.749091  1
