# generated using pymatgen
data_Li3Fe3O8
_symmetry_space_group_name_H-M   'P 1'
_cell_length_a   5.87904958
_cell_length_b   5.87904958
_cell_length_c   5.70843143
_cell_angle_alpha   119.04453825
_cell_angle_beta   60.95546175
_cell_angle_gamma   118.71144669
_symmetry_Int_Tables_number   1
_chemical_formula_structural   Li3Fe3O8
_chemical_formula_sum   'Li3 Fe3 O8'
_cell_volume   142.86027655
_cell_formula_units_Z   1
loop_
 _symmetry_equiv_pos_site_id
 _symmetry_equiv_pos_as_xyz
  1  'x, y, z'
loop_
 _atom_site_type_symbol
 _atom_site_label
 _atom_site_symmetry_multiplicity
 _atom_site_fract_x
 _atom_site_fract_y
 _atom_site_fract_z
 _atom_site_occupancy
  Li  Li1  1  0.501093  0.998907  -0.001337  1
  Li  Li2  1  0.501093  0.998907  0.499150  1
  Li  Li3  1  0.893207  0.606793  0.856793  1
  Fe  Fe4  1  0.987085  0.998836  0.505876  1
  Fe  Fe5  1  0.106454  0.393546  0.143546  1
  Fe  Fe6  1  0.501164  0.512915  0.505876  1
  O  O7  1  0.250216  0.249784  0.732987  1
  O  O8  1  0.250216  0.249784  0.266581  1
  O  O9  1  0.773484  0.211161  0.718838  1
  O  O10  1  0.721202  0.270160  0.274479  1
  O  O11  1  0.288839  0.726516  0.718838  1
  O  O12  1  0.229840  0.778798  0.274479  1
  O  O13  1  0.748053  0.751947  0.727628  1
  O  O14  1  0.748053  0.751947  0.276267  1
