# generated using pymatgen
data_Li3Fe3O8
_symmetry_space_group_name_H-M   'P 1'
_cell_length_a   5.86121897
_cell_length_b   5.86143994
_cell_length_c   9.90665055
_cell_angle_alpha   90.03873913
_cell_angle_beta   89.98062831
_cell_angle_gamma   120.00124196
_symmetry_Int_Tables_number   1
_chemical_formula_structural   Li3Fe3O8
_chemical_formula_sum   'Li6 Fe6 O16'
_cell_volume   294.74347979
_cell_formula_units_Z   2
loop_
 _symmetry_equiv_pos_site_id
 _symmetry_equiv_pos_as_xyz
  1  'x, y, z'
loop_
 _atom_site_type_symbol
 _atom_site_label
 _atom_site_symmetry_multiplicity
 _atom_site_fract_x
 _atom_site_fract_y
 _atom_site_fract_z
 _atom_site_occupancy
  Li  Li1  1  0.333277  0.666518  0.499565  1
  Li  Li2  1  0.333086  0.666864  0.888112  1
  Li  Li3  1  0.999880  0.999502  0.000707  1
  Li  Li4  1  0.000120  0.999621  0.500707  1
  Li  Li5  1  0.666723  0.333241  0.999565  1
  Li  Li6  1  0.666914  0.333778  0.388112  1
  Fe  Fe7  1  0.168661  0.831498  0.215218  1
  Fe  Fe8  1  0.168606  0.337184  0.215222  1
  Fe  Fe9  1  0.662912  0.831498  0.215285  1
  Fe  Fe10  1  0.337088  0.168586  0.715285  1
  Fe  Fe11  1  0.831339  0.662837  0.715218  1
  Fe  Fe12  1  0.831394  0.168577  0.715222  1
  O  O13  1  0.154031  0.845784  0.612758  1
  O  O14  1  0.034236  0.517299  0.320639  1
  O  O15  1  0.333466  0.667116  0.100080  1
  O  O16  1  0.999953  0.999772  0.319914  1
  O  O17  1  0.000047  0.999819  0.819914  1
  O  O18  1  0.153963  0.307933  0.612718  1
  O  O19  1  0.482987  0.966155  0.320578  1
  O  O20  1  0.482965  0.517149  0.320527  1
  O  O21  1  0.308085  0.153933  0.112597  1
  O  O22  1  0.691915  0.845848  0.612597  1
  O  O23  1  0.517013  0.483168  0.820578  1
  O  O24  1  0.517035  0.034184  0.820527  1
  O  O25  1  0.666534  0.333650  0.600080  1
  O  O26  1  0.845969  0.691753  0.112758  1
  O  O27  1  0.965764  0.483063  0.820639  1
  O  O28  1  0.846037  0.153970  0.112718  1
