# generated using pymatgen
data_Li6B4O9
_symmetry_space_group_name_H-M   'P 1'
_cell_length_a   3.40116769
_cell_length_b   23.64239158
_cell_length_c   9.24772674
_cell_angle_alpha   90.00000000
_cell_angle_beta   92.34211422
_cell_angle_gamma   90.00000000
_symmetry_Int_Tables_number   1
_chemical_formula_structural   Li6B4O9
_chemical_formula_sum   'Li24 B16 O36'
_cell_volume   743.00457808
_cell_formula_units_Z   4
loop_
 _symmetry_equiv_pos_site_id
 _symmetry_equiv_pos_as_xyz
  1  'x, y, z'
loop_
 _atom_site_type_symbol
 _atom_site_label
 _atom_site_symmetry_multiplicity
 _atom_site_fract_x
 _atom_site_fract_y
 _atom_site_fract_z
 _atom_site_occupancy
  Li  Li1  1  0.808384  0.118896  0.178637  1
  Li  Li2  1  0.308384  0.381104  0.678637  1
  Li  Li3  1  0.191616  0.881104  0.821363  1
  Li  Li4  1  0.691616  0.618896  0.321363  1
  Li  Li5  1  0.681687  0.942592  0.541738  1
  Li  Li6  1  0.181687  0.557408  0.041738  1
  Li  Li7  1  0.318313  0.057408  0.458262  1
  Li  Li8  1  0.818313  0.442592  0.958262  1
  Li  Li9  1  0.741043  0.958223  0.988854  1
  Li  Li10  1  0.241043  0.541777  0.488854  1
  Li  Li11  1  0.258957  0.041777  0.011146  1
  Li  Li12  1  0.758957  0.458223  0.511146  1
  Li  Li13  1  0.820757  0.143057  0.478282  1
  Li  Li14  1  0.320757  0.356943  0.978282  1
  Li  Li15  1  0.179243  0.856943  0.521718  1
  Li  Li16  1  0.679243  0.643057  0.021718  1
  Li  Li17  1  0.331499  0.204335  0.648400  1
  Li  Li18  1  0.831499  0.295665  0.148400  1
  Li  Li19  1  0.668501  0.795665  0.351600  1
  Li  Li20  1  0.168501  0.704335  0.851600  1
  Li  Li21  1  0.316798  0.206398  0.198050  1
  Li  Li22  1  0.816798  0.293602  0.698050  1
  Li  Li23  1  0.683202  0.793602  0.801950  1
  Li  Li24  1  0.183202  0.706398  0.301950  1
  B  B25  1  0.242102  0.977033  0.737609  1
  B  B26  1  0.742102  0.522967  0.237609  1
  B  B27  1  0.757898  0.022967  0.262391  1
  B  B28  1  0.257898  0.477033  0.762391  1
  B  B29  1  0.324323  0.086397  0.702910  1
  B  B30  1  0.824323  0.413603  0.202910  1
  B  B31  1  0.675677  0.913603  0.297090  1
  B  B32  1  0.175677  0.586397  0.797090  1
  B  B33  1  0.305751  0.148163  0.935576  1
  B  B34  1  0.805751  0.351837  0.435576  1
  B  B35  1  0.694249  0.851837  0.064424  1
  B  B36  1  0.194249  0.648163  0.564424  1
  B  B37  1  0.326728  0.256967  0.916991  1
  B  B38  1  0.826728  0.243033  0.416991  1
  B  B39  1  0.673272  0.743033  0.083009  1
  B  B40  1  0.173272  0.756967  0.583009  1
  O  O41  1  0.224967  0.973499  0.882814  1
  O  O42  1  0.724967  0.526501  0.382814  1
  O  O43  1  0.775033  0.026501  0.117186  1
  O  O44  1  0.275033  0.473499  0.617186  1
  O  O45  1  0.190869  0.931570  0.645497  1
  O  O46  1  0.690869  0.568430  0.145497  1
  O  O47  1  0.809131  0.068430  0.354503  1
  O  O48  1  0.309131  0.431570  0.854503  1
  O  O49  1  0.332657  0.028820  0.663107  1
  O  O50  1  0.832657  0.471180  0.163107  1
  O  O51  1  0.667343  0.971180  0.336893  1
  O  O52  1  0.167343  0.528820  0.836893  1
  O  O53  1  0.336689  0.124160  0.594047  1
  O  O54  1  0.836689  0.375840  0.094047  1
  O  O55  1  0.663311  0.875840  0.405953  1
  O  O56  1  0.163311  0.624160  0.905953  1
  O  O57  1  0.297216  0.098504  0.849526  1
  O  O58  1  0.797216  0.401496  0.349526  1
  O  O59  1  0.702784  0.901496  0.150474  1
  O  O60  1  0.202784  0.598504  0.650474  1
  O  O61  1  0.330056  0.199598  0.862339  1
  O  O62  1  0.830056  0.300402  0.362339  1
  O  O63  1  0.669944  0.800402  0.137661  1
  O  O64  1  0.169944  0.699598  0.637661  1
  O  O65  1  0.292110  0.140228  0.078704  1
  O  O66  1  0.792110  0.359772  0.578704  1
  O  O67  1  0.707890  0.859772  0.921296  1
  O  O68  1  0.207890  0.640228  0.421296  1
  O  O69  1  0.330615  0.297801  0.811872  1
  O  O70  1  0.830615  0.202199  0.311872  1
  O  O71  1  0.669385  0.702199  0.188128  1
  O  O72  1  0.169385  0.797801  0.688128  1
  O  O73  1  0.320291  0.268550  0.060801  1
  O  O74  1  0.820291  0.231450  0.560801  1
  O  O75  1  0.679709  0.731450  0.939199  1
  O  O76  1  0.179709  0.768550  0.439199  1
