# generated using pymatgen
data_K11B62
_symmetry_space_group_name_H-M   'P 1'
_cell_length_a   4.26690397
_cell_length_b   4.26177295
_cell_length_c   46.20387318
_cell_angle_alpha   89.95024306
_cell_angle_beta   90.00001037
_cell_angle_gamma   89.99997447
_symmetry_Int_Tables_number   1
_chemical_formula_structural   K11B62
_chemical_formula_sum   'K11 B62'
_cell_volume   840.19752270
_cell_formula_units_Z   1
loop_
 _symmetry_equiv_pos_site_id
 _symmetry_equiv_pos_as_xyz
  1  'x, y, z'
loop_
 _atom_site_type_symbol
 _atom_site_label
 _atom_site_symmetry_multiplicity
 _atom_site_fract_x
 _atom_site_fract_y
 _atom_site_fract_z
 _atom_site_occupancy
  K  K1  1  0.500000  0.504702  0.045442  1
  K  K2  1  0.500000  0.500463  0.227755  1
  K  K3  1  0.499999  0.499354  0.137330  1
  K  K4  1  0.500002  0.500058  0.318231  1
  K  K5  1  0.500001  0.499995  0.499988  1
  K  K6  1  0.499999  0.500011  0.409054  1
  K  K7  1  0.500000  0.499967  0.681926  1
  K  K8  1  0.500001  0.499960  0.590951  1
  K  K9  1  0.499998  0.500089  0.772403  1
  K  K10  1  0.500001  0.499452  0.953789  1
  K  K11  1  0.500000  0.500330  0.863886  1
  B  B12  1  0.000001  0.988183  0.028196  1
  B  B13  1  0.000001  0.981868  0.119988  1
  B  B14  1  0.000000  0.306966  0.181051  1
  B  B15  1  1.000000  0.001496  0.249725  1
  B  B16  1  0.000001  0.693990  0.179701  1
  B  B17  1  0.000000  0.000108  0.298082  1
  B  B18  1  -0.000000  0.306097  0.272436  1
  B  B19  1  0.000000  0.999944  0.335879  1
  B  B20  1  1.000000  0.999938  0.390568  1
  B  B21  1  0.000000  0.301632  0.363139  1
  B  B22  1  0.000000  0.000045  0.426998  1
  B  B23  1  1.000000  0.698302  0.363153  1
  B  B24  1  1.000000  0.999933  0.481816  1
  B  B25  1  -0.000000  0.300402  0.454476  1
  B  B26  1  0.999999  0.699566  0.454487  1
  B  B27  1  1.000000  0.000052  0.518134  1
  B  B28  1  -0.000000  0.999923  0.572759  1
  B  B29  1  1.000000  0.999916  0.663848  1
  B  B30  1  0.000000  0.000085  0.700478  1
  B  B31  1  1.000000  0.699890  0.636445  1
  B  B32  1  0.000000  0.999793  0.754900  1
  B  B33  1  0.000000  0.299746  0.727757  1
  B  B34  1  1.000000  0.999872  0.791981  1
  B  B35  1  0.000000  0.700188  0.727766  1
  B  B36  1  0.000000  0.300278  0.818094  1
  B  B37  1  1.000000  0.000516  0.885287  1
  B  B38  1  0.999999  0.699594  0.818100  1
  B  B39  1  1.000000  0.008352  0.934424  1
  B  B40  1  -0.000000  0.305401  0.908801  1
  B  B41  1  -0.000000  0.980933  0.970719  1
  B  B42  1  -0.000000  0.698887  0.909190  1
  B  B43  1  0.315706  0.967918  0.999078  1
  B  B44  1  0.315600  0.967637  0.091887  1
  B  B45  1  0.297075  0.003153  0.181902  1
  B  B46  1  0.305606  0.000343  0.272384  1
  B  B47  1  0.301614  0.999988  0.363144  1
  B  B48  1  0.300381  0.999990  0.454479  1
  B  B49  1  0.299907  0.999988  0.545464  1
  B  B50  1  0.300087  0.999987  0.636439  1
  B  B51  1  0.299771  0.999983  0.727755  1
  B  B52  1  0.304202  0.000308  0.817620  1
  B  B53  1  0.303486  0.001793  0.908516  1
  B  B54  1  0.684294  0.967917  0.999078  1
  B  B55  1  0.684401  0.967637  0.091886  1
  B  B56  1  0.702926  0.003152  0.181902  1
  B  B57  1  0.694393  0.000343  0.272384  1
  B  B58  1  0.698385  0.999988  0.363144  1
  B  B59  1  0.699619  0.999990  0.454479  1
  B  B60  1  0.700093  0.999988  0.545464  1
  B  B61  1  0.699912  0.999987  0.636439  1
  B  B62  1  0.695799  0.000307  0.817620  1
  B  B63  1  0.700228  0.999982  0.727755  1
  B  B64  1  0.696514  0.001792  0.908516  1
  B  B65  1  0.000000  0.007729  0.155694  1
  B  B66  1  1.000000  0.773970  0.999967  1
  B  B67  1  0.000000  0.774604  0.090790  1
  B  B68  1  0.999999  0.986525  0.062456  1
  B  B69  1  -0.000000  0.694924  0.272371  1
  B  B70  1  -0.000000  0.000062  0.609111  1
  B  B71  1  1.000000  0.299928  0.545456  1
  B  B72  1  0.000000  0.300090  0.636434  1
  B  B73  1  1.000000  0.700060  0.545467  1
