# generated using pymatgen
data_Li(FeO2)2
_symmetry_space_group_name_H-M   'P 1'
_cell_length_a   5.93941372
_cell_length_b   5.93559606
_cell_length_c   8.43829074
_cell_angle_alpha   89.97740541
_cell_angle_beta   90.00361867
_cell_angle_gamma   89.99887510
_symmetry_Int_Tables_number   1
_chemical_formula_structural   Li(FeO2)2
_chemical_formula_sum   'Li4 Fe8 O16'
_cell_volume   297.48314652
_cell_formula_units_Z   4
loop_
 _symmetry_equiv_pos_site_id
 _symmetry_equiv_pos_as_xyz
  1  'x, y, z'
loop_
 _atom_site_type_symbol
 _atom_site_label
 _atom_site_symmetry_multiplicity
 _atom_site_fract_x
 _atom_site_fract_y
 _atom_site_fract_z
 _atom_site_occupancy
  Li  Li1  1  0.999900  0.236057  0.999721  1
  Li  Li2  1  0.999907  0.763937  0.500278  1
  Li  Li3  1  0.236552  0.999970  0.250042  1
  Li  Li4  1  0.763498  0.999979  0.749957  1
  Fe  Fe5  1  0.238463  0.500009  0.250005  1
  Fe  Fe6  1  0.254858  0.254762  0.625107  1
  Fe  Fe7  1  0.254858  0.745251  0.874875  1
  Fe  Fe8  1  0.499990  0.238702  0.000011  1
  Fe  Fe9  1  0.499987  0.761363  0.499991  1
  Fe  Fe10  1  0.745151  0.254866  0.374933  1
  Fe  Fe11  1  0.745115  0.745107  0.125085  1
  Fe  Fe12  1  0.761479  0.500007  0.749986  1
  O  O13  1  0.014854  0.265452  0.258141  1
  O  O14  1  0.014851  0.734536  0.241893  1
  O  O15  1  0.265646  0.014867  0.991876  1
  O  O16  1  0.265654  0.985119  0.508118  1
  O  O17  1  0.264929  0.485765  0.013812  1
  O  O18  1  0.264968  0.514280  0.486189  1
  O  O19  1  0.485673  0.264876  0.236178  1
  O  O20  1  0.485680  0.735120  0.263854  1
  O  O21  1  0.514369  0.264893  0.763817  1
  O  O22  1  0.514334  0.735115  0.736154  1
  O  O23  1  0.735067  0.514299  0.513836  1
  O  O24  1  0.735086  0.485719  0.986153  1
  O  O25  1  0.734425  0.014847  0.008046  1
  O  O26  1  0.734410  0.985115  0.491970  1
  O  O27  1  0.985162  0.265506  0.741894  1
  O  O28  1  0.985135  0.734480  0.758076  1
