# generated using pymatgen
data_Li3(FeO3)2
_symmetry_space_group_name_H-M   'P 1'
_cell_length_a   8.75872392
_cell_length_b   8.86772926
_cell_length_c   9.66897017
_cell_angle_alpha   97.12619912
_cell_angle_beta   89.98367127
_cell_angle_gamma   60.41123104
_symmetry_Int_Tables_number   1
_chemical_formula_structural   Li3(FeO3)2
_chemical_formula_sum   'Li18 Fe12 O36'
_cell_volume   646.35890594
_cell_formula_units_Z   6
loop_
 _symmetry_equiv_pos_site_id
 _symmetry_equiv_pos_as_xyz
  1  'x, y, z'
loop_
 _atom_site_type_symbol
 _atom_site_label
 _atom_site_symmetry_multiplicity
 _atom_site_fract_x
 _atom_site_fract_y
 _atom_site_fract_z
 _atom_site_occupancy
  Li  Li1  1  0.833170  0.833399  0.499962  1
  Li  Li2  1  0.670489  0.859644  0.014264  1
  Li  Li3  1  0.837848  0.523529  0.513041  1
  Li  Li4  1  0.469697  0.859850  0.514272  1
  Li  Li5  1  0.333337  0.833380  0.000076  1
  Li  Li6  1  0.638480  0.523865  0.013171  1
  Li  Li7  1  0.197027  0.806816  0.485689  1
  Li  Li8  1  0.510371  0.500816  0.498721  1
  Li  Li9  1  0.828833  0.143073  0.486869  1
  Li  Li10  1  0.677756  0.165818  0.001258  1
  Li  Li11  1  0.363474  0.476623  0.986034  1
  Li  Li12  1  0.996177  0.806946  0.985821  1
  Li  Li13  1  0.506635  0.190099  0.513938  1
  Li  Li14  1  0.160028  0.476592  0.486103  1
  Li  Li15  1  0.988893  0.500806  0.998746  1
  Li  Li16  1  0.303374  0.189787  0.013837  1
  Li  Li17  1  0.156364  0.165786  0.501242  1
  Li  Li18  1  0.028063  0.143006  0.986936  1
  Fe  Fe19  1  0.749025  0.668052  0.252910  1
  Fe  Fe20  1  0.582930  0.668058  0.752985  1
  Fe  Fe21  1  0.910992  0.333351  0.749960  1
  Fe  Fe22  1  0.755649  0.333341  0.250024  1
  Fe  Fe23  1  0.248760  0.665267  0.746458  1
  Fe  Fe24  1  0.917645  0.998645  0.747114  1
  Fe  Fe25  1  0.086008  0.665217  0.246494  1
  Fe  Fe26  1  0.420034  0.333273  0.249956  1
  Fe  Fe27  1  0.246641  0.333369  0.749983  1
  Fe  Fe28  1  0.580728  0.001418  0.753505  1
  Fe  Fe29  1  0.417884  0.001412  0.253572  1
  Fe  Fe30  1  0.083715  0.998637  0.247006  1
  O  O31  1  0.995798  0.894793  0.363680  1
  O  O32  1  0.778697  0.945230  0.870672  1
  O  O33  1  0.888046  0.721386  0.129321  1
  O  O34  1  0.943721  0.611769  0.370157  1
  O  O35  1  0.616666  0.887715  0.368594  1
  O  O36  1  0.670877  0.771886  0.636332  1
  O  O37  1  0.495700  0.887962  0.868598  1
  O  O38  1  0.557270  0.771708  0.136283  1
  O  O39  1  0.779423  0.555289  0.866081  1
  O  O40  1  0.839091  0.445091  0.136921  1
  O  O41  1  0.276253  0.945296  0.370730  1
  O  O42  1  0.665385  0.555398  0.366054  1
  O  O43  1  0.951012  0.221499  0.363086  1
  O  O44  1  0.715584  0.445231  0.636935  1
  O  O45  1  0.390355  0.721413  0.629312  1
  O  O46  1  0.444561  0.611830  0.870143  1
  O  O47  1  0.109362  0.895027  0.863739  1
  O  O48  1  0.827559  0.221559  0.863073  1
  O  O49  1  0.171027  0.778800  0.131411  1
  O  O50  1  0.887261  0.111374  0.133921  1
  O  O51  1  0.560935  0.388201  0.129872  1
  O  O52  1  0.616034  0.278423  0.370063  1
  O  O53  1  0.280500  0.560190  0.365168  1
  O  O54  1  0.050008  0.778955  0.631422  1
  O  O55  1  0.336187  0.437419  0.631150  1
  O  O56  1  0.722875  0.054951  0.629908  1
  O  O57  1  0.159443  0.560266  0.865194  1
  O  O58  1  0.225999  0.437773  0.131141  1
  O  O59  1  0.440712  0.228872  0.868821  1
  O  O60  1  0.507195  0.106366  0.134763  1
  O  O61  1  0.330534  0.229179  0.368882  1
  O  O62  1  0.386190  0.106414  0.634851  1
  O  O63  1  0.050651  0.388219  0.629884  1
  O  O64  1  0.105825  0.278401  0.870065  1
  O  O65  1  0.221991  0.054945  0.129870  1
  O  O66  1  0.001229  0.111308  0.633966  1
