# generated using pymatgen
data_Li7Fe5O12
_symmetry_space_group_name_H-M   'P 1'
_cell_length_a   5.10713081
_cell_length_b   5.10713137
_cell_length_c   9.66784870
_cell_angle_alpha   85.54020786
_cell_angle_beta   94.45979645
_cell_angle_gamma   61.78974338
_symmetry_Int_Tables_number   1
_chemical_formula_structural   Li7Fe5O12
_chemical_formula_sum   'Li7 Fe5 O12'
_cell_volume   219.64913934
_cell_formula_units_Z   1
loop_
 _symmetry_equiv_pos_site_id
 _symmetry_equiv_pos_as_xyz
  1  'x, y, z'
loop_
 _atom_site_type_symbol
 _atom_site_label
 _atom_site_symmetry_multiplicity
 _atom_site_fract_x
 _atom_site_fract_y
 _atom_site_fract_z
 _atom_site_occupancy
  Li  Li1  1  0.251480  0.251480  0.750000  1
  Li  Li2  1  0.171770  0.656050  0.507991  1
  Li  Li3  1  0.332941  0.840697  0.994204  1
  Li  Li4  1  0.656050  0.171770  0.992009  1
  Li  Li5  1  0.840697  0.332941  0.505796  1
  Li  Li6  1  0.746081  0.746081  0.250000  1
  Li  Li7  1  0.922962  0.922962  0.750000  1
  Fe  Fe8  1  0.078038  0.078038  0.250000  1
  Fe  Fe9  1  0.000026  0.511765  0.991870  1
  Fe  Fe10  1  0.511765  0.000026  0.508130  1
  Fe  Fe11  1  0.420673  0.420673  0.250000  1
  Fe  Fe12  1  0.578874  0.578874  0.750000  1
  O  O13  1  0.925044  0.253959  0.866243  1
  O  O14  1  0.253959  0.925044  0.633757  1
  O  O15  1  0.157134  0.339991  0.379497  1
  O  O16  1  0.339991  0.157134  0.120503  1
  O  O17  1  0.290579  0.546961  0.872448  1
  O  O18  1  0.546961  0.290579  0.627552  1
  O  O19  1  0.435423  0.729441  0.366914  1
  O  O20  1  0.729441  0.435423  0.133086  1
  O  O21  1  0.639853  0.839077  0.876984  1
  O  O22  1  0.839077  0.639853  0.623016  1
  O  O23  1  0.772735  0.058447  0.370721  1
  O  O24  1  0.058447  0.772735  0.129279  1
