# generated using pymatgen
data_Li3Fe5O12
_symmetry_space_group_name_H-M   'P 1'
_cell_length_a   5.02715310
_cell_length_b   5.07228968
_cell_length_c   18.52707509
_cell_angle_alpha   86.34551983
_cell_angle_beta   92.61053180
_cell_angle_gamma   66.00953803
_symmetry_Int_Tables_number   1
_chemical_formula_structural   Li3Fe5O12
_chemical_formula_sum   'Li6 Fe10 O24'
_cell_volume   429.41110005
_cell_formula_units_Z   2
loop_
 _symmetry_equiv_pos_site_id
 _symmetry_equiv_pos_as_xyz
  1  'x, y, z'
loop_
 _atom_site_type_symbol
 _atom_site_label
 _atom_site_symmetry_multiplicity
 _atom_site_fract_x
 _atom_site_fract_y
 _atom_site_fract_z
 _atom_site_occupancy
  Li  Li1  1  0.320605  0.194535  0.893438  1
  Li  Li2  1  0.308401  0.182066  0.393798  1
  Li  Li3  1  0.170021  0.619450  0.257615  1
  Li  Li4  1  0.854302  0.350388  0.751394  1
  Li  Li5  1  0.933160  0.926842  0.875351  1
  Li  Li6  1  0.920263  0.937686  0.375975  1
  Fe  Fe7  1  0.071452  0.058662  0.622074  1
  Fe  Fe8  1  0.981704  0.534385  0.995936  1
  Fe  Fe9  1  0.062892  0.072698  0.122738  1
  Fe  Fe10  1  0.982314  0.523342  0.495153  1
  Fe  Fe11  1  0.513663  -0.000229  0.753368  1
  Fe  Fe12  1  0.515696  0.995512  0.252598  1
  Fe  Fe13  1  0.423081  0.429116  0.621852  1
  Fe  Fe14  1  0.428401  0.428993  0.122266  1
  Fe  Fe15  1  0.568146  0.583162  0.875817  1
  Fe  Fe16  1  0.575143  0.569625  0.375300  1
  O  O17  1  0.188473  0.290376  0.692294  1
  O  O18  1  0.296422  0.201927  0.555674  1
  O  O19  1  0.088836  0.738981  0.567429  1
  O  O20  1  0.197356  0.305251  0.191631  1
  O  O21  1  0.269767  0.565146  0.928512  1
  O  O22  1  0.292380  0.206231  0.055346  1
  O  O23  1  0.095121  0.744420  0.067026  1
  O  O24  1  0.262403  0.558323  0.431134  1
  O  O25  1  0.275944  0.928486  0.820714  1
  O  O26  1  0.579312  0.275463  0.818853  1
  O  O27  1  0.403966  0.748262  0.675827  1
  O  O28  1  0.276580  0.900730  0.319622  1
  O  O29  1  0.526056  0.291836  0.318516  1
  O  O30  1  0.740659  0.107978  0.683397  1
  O  O31  1  0.377338  0.756781  0.180012  1
  O  O32  1  0.739549  0.093084  0.179925  1
  O  O33  1  0.666911  0.821216  0.941651  1
  O  O34  1  0.764484  0.384060  0.569091  1
  O  O35  1  0.908222  0.294641  0.929294  1
  O  O36  1  0.804356  0.682652  0.804655  1
  O  O37  1  0.662293  0.812606  0.441447  1
  O  O38  1  0.754968  0.402216  0.070706  1
  O  O39  1  0.908230  0.281798  0.427578  1
  O  O40  1  0.810006  0.692391  0.303896  1
