# generated using pymatgen
data_Li3B11O18
_symmetry_space_group_name_H-M   'P 1'
_cell_length_a   17.99760490
_cell_length_b   7.95230126
_cell_length_c   9.77193820
_cell_angle_alpha   90.00000000
_cell_angle_beta   100.68547951
_cell_angle_gamma   90.00000000
_symmetry_Int_Tables_number   1
_chemical_formula_structural   Li3B11O18
_chemical_formula_sum   'Li12 B44 O72'
_cell_volume   1374.33133157
_cell_formula_units_Z   4
loop_
 _symmetry_equiv_pos_site_id
 _symmetry_equiv_pos_as_xyz
  1  'x, y, z'
loop_
 _atom_site_type_symbol
 _atom_site_label
 _atom_site_symmetry_multiplicity
 _atom_site_fract_x
 _atom_site_fract_y
 _atom_site_fract_z
 _atom_site_occupancy
  Li  Li1  1  0.958098  0.816847  0.492696  1
  Li  Li2  1  0.041902  0.316847  0.007304  1
  Li  Li3  1  0.041902  0.183153  0.507304  1
  Li  Li4  1  0.958098  0.683153  0.992696  1
  Li  Li5  1  0.753561  0.577658  0.277996  1
  Li  Li6  1  0.246439  0.077658  0.222004  1
  Li  Li7  1  0.246439  0.422342  0.722004  1
  Li  Li8  1  0.753561  0.922342  0.777996  1
  Li  Li9  1  0.579469  0.940486  0.135526  1
  Li  Li10  1  0.420531  0.440486  0.364474  1
  Li  Li11  1  0.420531  0.059514  0.864474  1
  Li  Li12  1  0.579469  0.559514  0.635526  1
  B  B13  1  0.993176  0.369157  0.249218  1
  B  B14  1  0.006824  0.869157  0.250782  1
  B  B15  1  0.006824  0.630843  0.750782  1
  B  B16  1  0.993176  0.130843  0.749218  1
  B  B17  1  0.903847  0.419456  0.402455  1
  B  B18  1  0.096153  0.919456  0.097545  1
  B  B19  1  0.096153  0.580544  0.597545  1
  B  B20  1  0.903847  0.080544  0.902455  1
  B  B21  1  0.807056  0.614547  0.008722  1
  B  B22  1  0.192944  0.114547  0.491278  1
  B  B23  1  0.192944  0.385453  0.991278  1
  B  B24  1  0.807056  0.885453  0.508722  1
  B  B25  1  0.712983  0.398579  0.990860  1
  B  B26  1  0.287017  0.898579  0.509140  1
  B  B27  1  0.287017  0.601421  0.009140  1
  B  B28  1  0.712983  0.101421  0.490860  1
  B  B29  1  0.624659  0.344727  0.154307  1
  B  B30  1  0.375341  0.844727  0.345693  1
  B  B31  1  0.375341  0.655273  0.845693  1
  B  B32  1  0.624659  0.155273  0.654307  1
  B  B33  1  0.513936  0.289824  0.250415  1
  B  B34  1  0.486064  0.789824  0.249585  1
  B  B35  1  0.486064  0.710176  0.749585  1
  B  B36  1  0.513936  0.210176  0.750415  1
  B  B37  1  0.307941  0.058323  0.965093  1
  B  B38  1  0.692059  0.558323  0.534907  1
  B  B39  1  0.692059  0.941677  0.034907  1
  B  B40  1  0.307941  0.441677  0.465093  1
  B  B41  1  0.184069  0.934164  0.927793  1
  B  B42  1  0.815931  0.434164  0.572207  1
  B  B43  1  0.815931  0.065836  0.072207  1
  B  B44  1  0.184069  0.565836  0.427793  1
  B  B45  1  0.913517  0.625040  0.218588  1
  B  B46  1  0.086483  0.125040  0.281412  1
  B  B47  1  0.086483  0.374960  0.781412  1
  B  B48  1  0.913517  0.874960  0.718588  1
  B  B49  1  0.414219  0.058315  0.186145  1
  B  B50  1  0.585781  0.558315  0.313855  1
  B  B51  1  0.585781  0.941685  0.813855  1
  B  B52  1  0.414219  0.441685  0.686145  1
  B  B53  1  0.242836  0.991416  0.722201  1
  B  B54  1  0.757164  0.491416  0.777799  1
  B  B55  1  0.757164  0.008584  0.277799  1
  B  B56  1  0.242836  0.508584  0.222201  1
  O  O57  1  0.956975  0.764013  0.296618  1
  O  O58  1  0.043025  0.264013  0.203382  1
  O  O59  1  0.043025  0.235987  0.703382  1
  O  O60  1  0.956975  0.735987  0.796618  1
  O  O61  1  0.965978  0.503147  0.167941  1
  O  O62  1  0.034022  0.003147  0.332059  1
  O  O63  1  0.034022  0.496853  0.832059  1
  O  O64  1  0.965978  0.996853  0.667941  1
  O  O65  1  0.870685  0.542145  0.313714  1
  O  O66  1  0.129315  0.042145  0.186286  1
  O  O67  1  0.129315  0.457855  0.686286  1
  O  O68  1  0.870685  0.957855  0.813714  1
  O  O69  1  0.969938  0.339646  0.377671  1
  O  O70  1  0.030062  0.839646  0.122329  1
  O  O71  1  0.030062  0.660354  0.622329  1
  O  O72  1  0.969938  0.160354  0.877671  1
  O  O73  1  0.867335  0.693455  0.091128  1
  O  O74  1  0.132665  0.193455  0.408872  1
  O  O75  1  0.132665  0.306545  0.908872  1
  O  O76  1  0.867335  0.806545  0.591128  1
  O  O77  1  0.756811  0.521170  0.073133  1
  O  O78  1  0.243189  0.021170  0.426867  1
  O  O79  1  0.243189  0.478830  0.926867  1
  O  O80  1  0.756811  0.978830  0.573133  1
  O  O81  1  0.662220  0.303761  0.047954  1
  O  O82  1  0.337780  0.803761  0.452046  1
  O  O83  1  0.337780  0.696239  0.952046  1
  O  O84  1  0.662220  0.196239  0.547954  1
  O  O85  1  0.639462  0.489126  0.229878  1
  O  O86  1  0.360538  0.989126  0.270122  1
  O  O87  1  0.360538  0.510874  0.770122  1
  O  O88  1  0.639462  0.010874  0.729878  1
  O  O89  1  0.756105  0.512352  0.480402  1
  O  O90  1  0.243895  0.012352  0.019598  1
  O  O91  1  0.243895  0.487648  0.519598  1
  O  O92  1  0.756105  0.987648  0.980402  1
  O  O93  1  0.566068  0.234856  0.170408  1
  O  O94  1  0.433932  0.734856  0.329592  1
  O  O95  1  0.433932  0.765144  0.829592  1
  O  O96  1  0.566068  0.265144  0.670408  1
  O  O97  1  0.525428  0.436466  0.325241  1
  O  O98  1  0.474572  0.936466  0.174759  1
  O  O99  1  0.474572  0.563534  0.674759  1
  O  O100  1  0.525428  0.063534  0.825241  1
  O  O101  1  0.447591  0.211427  0.256510  1
  O  O102  1  0.552409  0.711427  0.243490  1
  O  O103  1  0.552409  0.788573  0.743490  1
  O  O104  1  0.447591  0.288573  0.756510  1
  O  O105  1  0.375613  0.100574  0.044270  1
  O  O106  1  0.624387  0.600574  0.455730  1
  O  O107  1  0.624387  0.899426  0.955730  1
  O  O108  1  0.375613  0.399426  0.544270  1
  O  O109  1  0.304526  0.068314  0.824352  1
  O  O110  1  0.695474  0.568314  0.675648  1
  O  O111  1  0.695474  0.931686  0.175648  1
  O  O112  1  0.304526  0.431686  0.324352  1
  O  O113  1  0.277824  0.868538  0.640847  1
  O  O114  1  0.722176  0.368538  0.859153  1
  O  O115  1  0.722176  0.131462  0.359153  1
  O  O116  1  0.277824  0.631462  0.140847  1
  O  O117  1  0.203577  0.126890  0.631832  1
  O  O118  1  0.796423  0.626890  0.868168  1
  O  O119  1  0.796423  0.873110  0.368168  1
  O  O120  1  0.203577  0.373110  0.131832  1
  O  O121  1  0.187101  0.908118  0.792842  1
  O  O122  1  0.812899  0.408118  0.707158  1
  O  O123  1  0.812899  0.091882  0.207158  1
  O  O124  1  0.187101  0.591882  0.292842  1
  O  O125  1  0.122200  0.873841  0.979935  1
  O  O126  1  0.877800  0.373841  0.520065  1
  O  O127  1  0.877800  0.126159  0.020065  1
  O  O128  1  0.122200  0.626159  0.479935  1
