# generated using pymatgen
data_Li5Fe7O12
_symmetry_space_group_name_H-M   'P 1'
_cell_length_a   5.20290382
_cell_length_b   5.20290407
_cell_length_c   9.87344822
_cell_angle_alpha   84.80911065
_cell_angle_beta   95.19088634
_cell_angle_gamma   59.76528457
_symmetry_Int_Tables_number   1
_chemical_formula_structural   Li5Fe7O12
_chemical_formula_sum   'Li5 Fe7 O12'
_cell_volume   227.07937212
_cell_formula_units_Z   1
loop_
 _symmetry_equiv_pos_site_id
 _symmetry_equiv_pos_as_xyz
  1  'x, y, z'
loop_
 _atom_site_type_symbol
 _atom_site_label
 _atom_site_symmetry_multiplicity
 _atom_site_fract_x
 _atom_site_fract_y
 _atom_site_fract_z
 _atom_site_occupancy
  Li  Li1  1  0.167112  0.667827  0.505453  1
  Li  Li2  1  0.324578  0.839034  0.994721  1
  Li  Li3  1  0.667827  0.167112  0.994547  1
  Li  Li4  1  0.839034  0.324578  0.505279  1
  Li  Li5  1  0.916091  0.916091  0.750000  1
  Fe  Fe6  1  0.076200  0.076200  0.250000  1
  Fe  Fe7  1  0.996686  0.511900  0.998843  1
  Fe  Fe8  1  0.249903  0.249903  0.750000  1
  Fe  Fe9  1  0.511900  0.996686  0.501157  1
  Fe  Fe10  1  0.422973  0.422973  0.250000  1
  Fe  Fe11  1  0.579939  0.579939  0.750000  1
  Fe  Fe12  1  0.754084  0.754084  0.250000  1
  O  O13  1  0.956941  0.237562  0.869905  1
  O  O14  1  0.237562  0.956941  0.630095  1
  O  O15  1  0.136618  0.350715  0.372364  1
  O  O16  1  0.350715  0.136618  0.127636  1
  O  O17  1  0.289811  0.527303  0.869409  1
  O  O18  1  0.527303  0.289811  0.630591  1
  O  O19  1  0.445908  0.732140  0.374505  1
  O  O20  1  0.732140  0.445908  0.125495  1
  O  O21  1  0.620515  0.859345  0.873088  1
  O  O22  1  0.859345  0.620515  0.626912  1
  O  O23  1  0.798020  0.038799  0.381591  1
  O  O24  1  0.038799  0.798020  0.118409  1
