# generated using pymatgen
data_LiRh3
_symmetry_space_group_name_H-M   'P 1'
_cell_length_a   2.69786395
_cell_length_b   4.68445925
_cell_length_c   5.11760371
_cell_angle_alpha   117.23755709
_cell_angle_beta   105.28298776
_cell_angle_gamma   90.00000000
_symmetry_Int_Tables_number   1
_chemical_formula_structural   LiRh3
_chemical_formula_sum   'Li1 Rh3'
_cell_volume   54.91980092
_cell_formula_units_Z   1
loop_
 _symmetry_equiv_pos_site_id
 _symmetry_equiv_pos_as_xyz
  1  'x, y, z'
loop_
 _atom_site_type_symbol
 _atom_site_label
 _atom_site_symmetry_multiplicity
 _atom_site_fract_x
 _atom_site_fract_y
 _atom_site_fract_z
 _atom_site_occupancy
  Li  Li1  1  0.000000  0.015265  0.000000  1
  Rh  Rh2  1  0.500000  0.505452  1.000000  1
  Rh  Rh3  1  0.755636  0.446777  0.511272  1
  Rh  Rh4  1  0.244364  0.935505  0.488728  1
