# generated using pymatgen
data_Li3(FeO2)5
_symmetry_space_group_name_H-M   'P 1'
_cell_length_a   5.18858054
_cell_length_b   5.18901000
_cell_length_c   7.92557381
_cell_angle_alpha   109.16563902
_cell_angle_beta   102.59774640
_cell_angle_gamma   99.88969245
_symmetry_Int_Tables_number   1
_chemical_formula_structural   Li3(FeO2)5
_chemical_formula_sum   'Li3 Fe5 O10'
_cell_volume   189.72722017
_cell_formula_units_Z   1
loop_
 _symmetry_equiv_pos_site_id
 _symmetry_equiv_pos_as_xyz
  1  'x, y, z'
loop_
 _atom_site_type_symbol
 _atom_site_label
 _atom_site_symmetry_multiplicity
 _atom_site_fract_x
 _atom_site_fract_y
 _atom_site_fract_z
 _atom_site_occupancy
  Li  Li1  1  0.210673  0.919007  0.412925  1
  Li  Li2  1  0.500000  0.500000  0.500000  1
  Li  Li3  1  0.789327  0.080993  0.587075  1
  Fe  Fe4  1  0.117514  0.693205  0.690731  1
  Fe  Fe5  1  0.000000  0.500000  0.000000  1
  Fe  Fe6  1  0.694370  0.880983  0.896468  1
  Fe  Fe7  1  0.305630  0.119017  0.103532  1
  Fe  Fe8  1  0.882486  0.306795  0.309269  1
  O  O9  1  0.028160  0.116477  0.867272  1
  O  O10  1  0.111196  0.295895  0.520258  1
  O  O11  1  0.330485  0.731214  0.929862  1
  O  O12  1  0.192919  0.469905  0.236565  1
  O  O13  1  0.443383  0.861405  0.657247  1
  O  O14  1  0.556617  0.138595  0.342753  1
  O  O15  1  0.807081  0.530095  0.763435  1
  O  O16  1  0.669515  0.268786  0.070138  1
  O  O17  1  0.888804  0.704105  0.479742  1
  O  O18  1  0.971840  0.883523  0.132728  1
