# generated using pymatgen
data_Li3Fe5O12
_symmetry_space_group_name_H-M   'P 1'
_cell_length_a   5.02920556
_cell_length_b   5.03234641
_cell_length_c   20.41252878
_cell_angle_alpha   85.25291411
_cell_angle_beta   95.10373459
_cell_angle_gamma   59.92025359
_symmetry_Int_Tables_number   1
_chemical_formula_structural   Li3Fe5O12
_chemical_formula_sum   'Li6 Fe10 O24'
_cell_volume   440.38220658
_cell_formula_units_Z   2
loop_
 _symmetry_equiv_pos_site_id
 _symmetry_equiv_pos_as_xyz
  1  'x, y, z'
loop_
 _atom_site_type_symbol
 _atom_site_label
 _atom_site_symmetry_multiplicity
 _atom_site_fract_x
 _atom_site_fract_y
 _atom_site_fract_z
 _atom_site_occupancy
  Li  Li1  1  0.342063  0.841618  0.501743  1
  Li  Li2  1  0.750546  0.751689  0.624951  1
  Li  Li3  1  0.831895  0.356505  0.747667  1
  Li  Li4  1  0.985341  0.510782  0.001615  1
  Li  Li5  1  0.745537  0.753873  0.124836  1
  Li  Li6  1  0.834816  0.344874  0.248088  1
  Fe  Fe7  1  0.582518  0.587801  0.875017  1
  Fe  Fe8  1  0.250166  0.253780  0.875110  1
  Fe  Fe9  1  0.916410  0.920961  0.874618  1
  Fe  Fe10  1  0.079529  0.080380  0.625165  1
  Fe  Fe11  1  0.409795  0.410974  0.625057  1
  Fe  Fe12  1  0.585373  0.585288  0.374986  1
  Fe  Fe13  1  0.252729  0.251897  0.375016  1
  Fe  Fe14  1  0.918682  0.918785  0.375006  1
  Fe  Fe15  1  0.086835  0.071696  0.125045  1
  Fe  Fe16  1  0.416424  0.411923  0.125113  1
  O  O17  1  0.219903  0.971144  0.824729  1
  O  O18  1  0.290559  0.532763  0.925067  1
  O  O19  1  0.614436  0.869773  0.925667  1
  O  O20  1  0.083765  0.781760  0.573676  1
  O  O21  1  0.194480  0.975990  0.324044  1
  O  O22  1  0.417898  0.704426  0.675444  1
  O  O23  1  0.134552  0.350592  0.674764  1
  O  O24  1  0.266778  0.565748  0.425192  1
  O  O25  1  0.605497  0.904112  0.425577  1
  O  O26  1  0.880106  0.600368  0.823804  1
  O  O27  1  0.541553  0.309632  0.824967  1
  O  O28  1  0.078741  0.770010  0.074832  1
  O  O29  1  0.348511  0.134424  0.575416  1
  O  O30  1  0.431183  0.700654  0.175167  1
  O  O31  1  0.702337  0.419105  0.574658  1
  O  O32  1  0.952288  0.240859  0.925964  1
  O  O33  1  0.147200  0.339840  0.175148  1
  O  O34  1  0.781180  0.085841  0.676687  1
  O  O35  1  0.903799  0.604585  0.324364  1
  O  O36  1  0.565452  0.265872  0.324748  1
  O  O37  1  0.341461  0.152188  0.073802  1
  O  O38  1  0.723104  0.408528  0.074748  1
  O  O39  1  0.976858  0.194944  0.425887  1
  O  O40  1  0.787265  0.081759  0.176323  1
