# generated using pymatgen
data_LiBO2
_symmetry_space_group_name_H-M   'P 1'
_cell_length_a   4.23282594
_cell_length_b   4.23282595
_cell_length_c   4.45285623
_cell_angle_alpha   118.37845202
_cell_angle_beta   118.37845196
_cell_angle_gamma   90.00000000
_symmetry_Int_Tables_number   1
_chemical_formula_structural   LiBO2
_chemical_formula_sum   'Li2 B2 O4'
_cell_volume   59.06987082
_cell_formula_units_Z   2
loop_
 _symmetry_equiv_pos_site_id
 _symmetry_equiv_pos_as_xyz
  1  'x, y, z'
loop_
 _atom_site_type_symbol
 _atom_site_label
 _atom_site_symmetry_multiplicity
 _atom_site_fract_x
 _atom_site_fract_y
 _atom_site_fract_z
 _atom_site_occupancy
  Li  Li1  1  0.500000  0.500000  0.000000  1
  Li  Li2  1  0.750000  0.250000  0.500000  1
  B  B3  1  0.000000  0.000000  0.000000  1
  B  B4  1  0.250000  0.750000  0.500000  1
  O  O5  1  0.969075  0.875000  0.250000  1
  O  O6  1  0.625000  0.030925  0.750000  1
  O  O7  1  0.125000  0.719075  0.750000  1
  O  O8  1  0.280925  0.375000  0.250000  1
