# generated using pymatgen
data_Li3In2
_symmetry_space_group_name_H-M   'P 1'
_cell_length_a   5.62637565
_cell_length_b   5.62637565
_cell_length_c   5.62637565
_cell_angle_alpha   49.98935132
_cell_angle_beta   49.98935129
_cell_angle_gamma   49.98935136
_symmetry_Int_Tables_number   1
_chemical_formula_structural   Li3In2
_chemical_formula_sum   'Li3 In2'
_cell_volume   96.15334159
_cell_formula_units_Z   1
loop_
 _symmetry_equiv_pos_site_id
 _symmetry_equiv_pos_as_xyz
  1  'x, y, z'
loop_
 _atom_site_type_symbol
 _atom_site_label
 _atom_site_symmetry_multiplicity
 _atom_site_fract_x
 _atom_site_fract_y
 _atom_site_fract_z
 _atom_site_occupancy
  Li  Li1  1  0.596224  0.596224  0.596224  1
  Li  Li2  1  0.403776  0.403776  0.403776  1
  Li  Li3  1  0.000000  0.000000  0.000000  1
  In  In4  1  0.208887  0.208887  0.208887  1
  In  In5  1  0.791113  0.791113  0.791113  1
