# generated using pymatgen
data_Li5Fe5O12
_symmetry_space_group_name_H-M   'P 1'
_cell_length_a   5.10046934
_cell_length_b   5.09635820
_cell_length_c   19.87965871
_cell_angle_alpha   85.78753560
_cell_angle_beta   95.13954944
_cell_angle_gamma   60.48240244
_symmetry_Int_Tables_number   1
_chemical_formula_structural   Li5Fe5O12
_chemical_formula_sum   'Li10 Fe10 O24'
_cell_volume   443.72733035
_cell_formula_units_Z   2
loop_
 _symmetry_equiv_pos_site_id
 _symmetry_equiv_pos_as_xyz
  1  'x, y, z'
loop_
 _atom_site_type_symbol
 _atom_site_label
 _atom_site_symmetry_multiplicity
 _atom_site_fract_x
 _atom_site_fract_y
 _atom_site_fract_z
 _atom_site_occupancy
  Li  Li1  1  0.990372  0.506285  0.502258  1
  Li  Li2  1  0.338653  0.848576  0.502187  1
  Li  Li3  1  0.751383  0.752679  0.625064  1
  Li  Li4  1  0.841309  0.347684  0.747365  1
  Li  Li5  1  0.986264  0.500985  0.002468  1
  Li  Li6  1  0.503299  0.998122  0.747703  1
  Li  Li7  1  0.749269  0.747808  0.125067  1
  Li  Li8  1  0.846250  0.339724  0.247558  1
  Li  Li9  1  0.510453  0.991821  0.248105  1
  Li  Li10  1  0.659098  0.152593  0.002612  1
  Fe  Fe11  1  0.586312  0.585862  0.875182  1
  Fe  Fe12  1  0.250752  0.252403  0.874935  1
  Fe  Fe13  1  0.915849  0.917780  0.874981  1
  Fe  Fe14  1  0.083161  0.083797  0.624971  1
  Fe  Fe15  1  0.419495  0.420067  0.625104  1
  Fe  Fe16  1  0.583133  0.584997  0.374833  1
  Fe  Fe17  1  0.252111  0.253329  0.374977  1
  Fe  Fe18  1  0.913466  0.915123  0.374998  1
  Fe  Fe19  1  0.078938  0.082274  0.124932  1
  Fe  Fe20  1  0.406941  0.429603  0.124788  1
  O  O21  1  0.216662  0.974256  0.822233  1
  O  O22  1  0.285967  0.529104  0.928105  1
  O  O23  1  0.633480  0.879608  0.932160  1
  O  O24  1  0.089946  0.767666  0.572846  1
  O  O25  1  0.212774  0.977149  0.320380  1
  O  O26  1  0.419022  0.733522  0.678183  1
  O  O27  1  0.137788  0.337284  0.679449  1
  O  O28  1  0.278963  0.546464  0.428197  1
  O  O29  1  0.623383  0.865646  0.432580  1
  O  O30  1  0.868282  0.625022  0.817878  1
  O  O31  1  0.551704  0.278551  0.820030  1
  O  O32  1  0.062941  0.784238  0.073539  1
  O  O33  1  0.334647  0.138217  0.570668  1
  O  O34  1  0.429147  0.718382  0.175651  1
  O  O35  1  0.730482  0.418084  0.572252  1
  O  O36  1  0.950862  0.225771  0.929553  1
  O  O37  1  0.139355  0.328610  0.180411  1
  O  O38  1  0.768074  0.092126  0.677160  1
  O  O39  1  0.862547  0.623649  0.317354  1
  O  O40  1  0.543757  0.279580  0.321761  1
  O  O41  1  0.349082  0.161728  0.071478  1
  O  O42  1  0.743451  0.400152  0.069545  1
  O  O43  1  0.976658  0.215454  0.429402  1
  O  O44  1  0.772108  0.090940  0.178626  1
