# generated using pymatgen
data_LiMg15
_symmetry_space_group_name_H-M   'P 1'
_cell_length_a   6.36615898
_cell_length_b   6.36615847
_cell_length_c   10.32589386
_cell_angle_alpha   90.00000000
_cell_angle_beta   90.00000000
_cell_angle_gamma   120.00000266
_symmetry_Int_Tables_number   1
_chemical_formula_structural   LiMg15
_chemical_formula_sum   'Li1 Mg15'
_cell_volume   362.42087251
_cell_formula_units_Z   1
loop_
 _symmetry_equiv_pos_site_id
 _symmetry_equiv_pos_as_xyz
  1  'x, y, z'
loop_
 _atom_site_type_symbol
 _atom_site_label
 _atom_site_symmetry_multiplicity
 _atom_site_fract_x
 _atom_site_fract_y
 _atom_site_fract_z
 _atom_site_occupancy
  Li  Li1  1  0.166667  0.333333  0.125000  1
  Mg  Mg2  1  0.166667  0.333333  0.625000  1
  Mg  Mg3  1  0.166956  0.833477  0.125000  1
  Mg  Mg4  1  0.166732  0.833365  0.625000  1
  Mg  Mg5  1  0.666523  0.333044  0.125000  1
  Mg  Mg6  1  0.666635  0.333268  0.625000  1
  Mg  Mg7  1  0.666523  0.833477  0.125000  1
  Mg  Mg8  1  0.666635  0.833365  0.625000  1
  Mg  Mg9  1  0.332866  0.167134  0.374901  1
  Mg  Mg10  1  0.332866  0.167134  0.875099  1
  Mg  Mg11  1  0.332866  0.665733  0.374901  1
  Mg  Mg12  1  0.332866  0.665733  0.875099  1
  Mg  Mg13  1  0.834267  0.167134  0.374901  1
  Mg  Mg14  1  0.834267  0.167134  0.875099  1
  Mg  Mg15  1  0.833333  0.666667  0.375269  1
  Mg  Mg16  1  0.833333  0.666667  0.874731  1
