# generated using pymatgen
data_Li9(FeO4)2
_symmetry_space_group_name_H-M   'P 1'
_cell_length_a   5.53851228
_cell_length_b   6.77415525
_cell_length_c   10.87106141
_cell_angle_alpha   90.69319314
_cell_angle_beta   78.48159924
_cell_angle_gamma   89.48025755
_symmetry_Int_Tables_number   1
_chemical_formula_structural   Li9(FeO4)2
_chemical_formula_sum   'Li18 Fe4 O16'
_cell_volume   399.59761834
_cell_formula_units_Z   2
loop_
 _symmetry_equiv_pos_site_id
 _symmetry_equiv_pos_as_xyz
  1  'x, y, z'
loop_
 _atom_site_type_symbol
 _atom_site_label
 _atom_site_symmetry_multiplicity
 _atom_site_fract_x
 _atom_site_fract_y
 _atom_site_fract_z
 _atom_site_occupancy
  Li  Li1  1  0.119607  0.165614  0.288530  1
  Li  Li2  1  0.043365  0.252833  0.662067  1
  Li  Li3  1  0.090473  0.534090  0.801800  1
  Li  Li4  1  0.288386  0.957989  0.069262  1
  Li  Li5  1  0.211519  0.476662  0.430080  1
  Li  Li6  1  0.302954  0.520989  0.058092  1
  Li  Li7  1  0.397841  0.703526  0.215878  1
  Li  Li8  1  0.514040  0.251970  0.157730  1
  Li  Li9  1  0.541876  0.975373  0.313050  1
  Li  Li10  1  0.460525  0.762287  0.820223  1
  Li  Li11  1  0.577208  0.253235  0.770719  1
  Li  Li12  1  0.813403  0.984029  0.555781  1
  Li  Li13  1  0.800507  0.542698  0.571563  1
  Li  Li14  1  0.685794  0.478458  0.927509  1
  Li  Li15  1  0.905080  0.454941  0.197022  1
  Li  Li16  1  0.715070  0.028718  0.921944  1
  Li  Li17  1  0.978347  0.763584  0.334955  1
  Li  Li18  1  0.900532  0.791676  0.716964  1
  Fe  Fe19  1  0.818053  0.753395  0.065696  1
  Fe  Fe20  1  0.170318  0.238956  0.935439  1
  Fe  Fe21  1  0.325930  0.776774  0.561192  1
  Fe  Fe22  1  0.679289  0.266779  0.431939  1
  O  O23  1  0.093624  0.724811  0.145833  1
  O  O24  1  0.156257  0.253057  0.113362  1
  O  O25  1  0.116264  0.977264  0.619601  1
  O  O26  1  0.122305  0.553692  0.620835  1
  O  O27  1  0.322492  0.757369  0.390353  1
  O  O28  1  0.423731  0.257248  0.349610  1
  O  O29  1  0.365184  0.469743  0.877908  1
  O  O30  1  0.392561  0.031690  0.885603  1
  O  O31  1  0.589879  0.957869  0.130330  1
  O  O32  1  0.627973  0.518845  0.111655  1
  O  O33  1  0.605004  0.772649  0.634180  1
  O  O34  1  0.713995  0.263871  0.594285  1
  O  O35  1  0.830220  0.026780  0.379973  1
  O  O36  1  0.881343  0.477715  0.380010  1
  O  O37  1  0.842828  0.743345  0.888806  1
  O  O38  1  0.900293  0.266578  0.851171  1
