# generated using pymatgen
data_Li15(FeO6)2
_symmetry_space_group_name_H-M   'P 1'
_cell_length_a   5.44830341
_cell_length_b   8.09213217
_cell_length_c   5.82502041
_cell_angle_alpha   93.91290126
_cell_angle_beta   90.43887894
_cell_angle_gamma   89.14808555
_symmetry_Int_Tables_number   1
_chemical_formula_structural   Li15(FeO6)2
_chemical_formula_sum   'Li15 Fe2 O12'
_cell_volume   256.18311981
_cell_formula_units_Z   1
loop_
 _symmetry_equiv_pos_site_id
 _symmetry_equiv_pos_as_xyz
  1  'x, y, z'
loop_
 _atom_site_type_symbol
 _atom_site_label
 _atom_site_symmetry_multiplicity
 _atom_site_fract_x
 _atom_site_fract_y
 _atom_site_fract_z
 _atom_site_occupancy
  Li  Li1  1  0.980976  0.652618  0.689387  1
  Li  Li2  1  0.854109  0.637083  0.274174  1
  Li  Li3  1  0.857865  0.934105  0.561878  1
  Li  Li4  1  0.779553  0.273501  0.967821  1
  Li  Li5  1  0.632442  0.899371  0.202962  1
  Li  Li6  1  0.687311  0.207108  0.519339  1
  Li  Li7  1  0.658384  0.565116  0.933459  1
  Li  Li8  1  0.516906  0.838961  0.806824  1
  Li  Li9  1  0.340452  0.408022  0.101762  1
  Li  Li10  1  0.302956  0.795080  0.437319  1
  Li  Li11  1  0.373193  0.127574  0.805219  1
  Li  Li12  1  0.191726  0.698836  0.054318  1
  Li  Li13  1  0.207106  0.086227  0.384674  1
  Li  Li14  1  0.125462  0.371516  0.742999  1
  Li  Li15  1  0.002483  0.351709  0.319388  1
  Fe  Fe16  1  0.496178  0.503027  0.510358  1
  Fe  Fe17  1  0.004906  0.994991  0.989894  1
  O  O18  1  0.849744  0.760919  0.997100  1
  O  O19  1  0.861270  0.065287  0.293947  1
  O  O20  1  0.786609  0.426354  0.671332  1
  O  O21  1  0.642029  0.732405  0.503326  1
  O  O22  1  0.714152  0.060359  0.819821  1
  O  O23  1  0.668763  0.439750  0.215086  1
  O  O24  1  0.330785  0.565866  0.804939  1
  O  O25  1  0.294924  0.914341  0.148637  1
  O  O26  1  0.348677  0.282085  0.516188  1
  O  O27  1  0.200227  0.572638  0.341627  1
  O  O28  1  0.178766  0.935002  0.696545  1
  O  O29  1  0.129733  0.236742  0.001556  1
