# generated using pymatgen
data_Li21(FeO4)4
_symmetry_space_group_name_H-M   'P 1'
_cell_length_a   6.54643995
_cell_length_b   6.54666639
_cell_length_c   9.49582360
_cell_angle_alpha   89.90401959
_cell_angle_beta   90.09497471
_cell_angle_gamma   87.58602621
_symmetry_Int_Tables_number   1
_chemical_formula_structural   Li21(FeO4)4
_chemical_formula_sum   'Li21 Fe4 O16'
_cell_volume   406.60358990
_cell_formula_units_Z   1
loop_
 _symmetry_equiv_pos_site_id
 _symmetry_equiv_pos_as_xyz
  1  'x, y, z'
loop_
 _atom_site_type_symbol
 _atom_site_label
 _atom_site_symmetry_multiplicity
 _atom_site_fract_x
 _atom_site_fract_y
 _atom_site_fract_z
 _atom_site_occupancy
  Li  Li1  1  0.035846  0.950042  0.387859  1
  Li  Li2  1  0.044587  0.955876  0.879628  1
  Li  Li3  1  0.219057  0.272704  0.347434  1
  Li  Li4  1  0.276486  0.219599  0.097679  1
  Li  Li5  1  0.222076  0.275643  0.846074  1
  Li  Li6  1  0.250126  0.243685  0.596505  1
  Li  Li7  1  0.455824  0.544578  0.370434  1
  Li  Li8  1  0.450104  0.535895  0.862155  1
  Li  Li9  1  0.481437  0.973696  0.363955  1
  Li  Li10  1  0.473675  0.981445  0.886067  1
  Li  Li11  1  0.535115  0.456429  0.115112  1
  Li  Li12  1  0.529141  0.029157  0.625001  1
  Li  Li13  1  0.530778  0.464854  0.616963  1
  Li  Li14  1  0.719620  0.776428  0.152363  1
  Li  Li15  1  0.775564  0.722083  0.403938  1
  Li  Li16  1  0.743681  0.750138  0.653500  1
  Li  Li17  1  0.772756  0.719059  0.902591  1
  Li  Li18  1  0.956470  0.035087  0.134934  1
  Li  Li19  1  0.964837  0.030766  0.633035  1
  Li  Li20  1  0.977145  0.477120  0.125063  1
  Li  Li21  1  0.984302  0.484309  0.624962  1
  Fe  Fe22  1  0.253905  0.753771  0.125057  1
  Fe  Fe23  1  0.253334  0.753326  0.624977  1
  Fe  Fe24  1  0.756099  0.255494  0.373549  1
  Fe  Fe25  1  0.755384  0.256130  0.876006  1
  O  O26  1  0.998228  0.239351  0.487269  1
  O  O27  1  0.000166  0.234206  0.988870  1
  O  O28  1  0.265311  0.478620  0.714368  1
  O  O29  1  0.237345  0.997304  0.239277  1
  O  O30  1  0.254812  0.019810  0.740181  1
  O  O31  1  0.264742  0.488478  0.213409  1
  O  O32  1  0.493002  0.264601  0.964882  1
  O  O33  1  0.493910  0.250899  0.472088  1
  O  O34  1  0.497290  0.737354  0.010777  1
  O  O35  1  0.519794  0.754814  0.509829  1
  O  O36  1  0.750918  0.993930  0.777891  1
  O  O37  1  0.764603  0.992925  0.285121  1
  O  O38  1  0.734242  0.500154  0.261137  1
  O  O39  1  0.739376  0.498219  0.762741  1
  O  O40  1  0.988470  0.764674  0.036672  1
  O  O41  1  0.978596  0.765314  0.535649  1
