# generated using pymatgen
data_Li5(FeO2)4
_symmetry_space_group_name_H-M   'P 1'
_cell_length_a   6.00360501
_cell_length_b   6.01385993
_cell_length_c   9.91845179
_cell_angle_alpha   89.42948637
_cell_angle_beta   90.24289831
_cell_angle_gamma   119.70703049
_symmetry_Int_Tables_number   1
_chemical_formula_structural   Li5(FeO2)4
_chemical_formula_sum   'Li10 Fe8 O16'
_cell_volume   311.02322388
_cell_formula_units_Z   2
loop_
 _symmetry_equiv_pos_site_id
 _symmetry_equiv_pos_as_xyz
  1  'x, y, z'
loop_
 _atom_site_type_symbol
 _atom_site_label
 _atom_site_symmetry_multiplicity
 _atom_site_fract_x
 _atom_site_fract_y
 _atom_site_fract_z
 _atom_site_occupancy
  Li  Li1  1  0.189658  0.793957  0.043341  1
  Li  Li2  1  0.604940  0.799540  0.039682  1
  Li  Li3  1  0.337342  0.666960  0.259930  1
  Li  Li4  1  0.194697  0.387014  0.042966  1
  Li  Li5  1  0.793268  0.601722  0.539716  1
  Li  Li6  1  0.384776  0.194106  0.543108  1
  Li  Li7  1  0.000490  0.000581  0.473988  1
  Li  Li8  1  0.664880  0.333261  0.759737  1
  Li  Li9  1  0.002295  0.002801  0.973882  1
  Li  Li10  1  0.793377  0.187590  0.543115  1
  Fe  Fe11  1  0.336701  0.672743  0.515026  1
  Fe  Fe12  1  0.676276  0.333980  0.015034  1
  Fe  Fe13  1  0.169590  0.831883  0.773175  1
  Fe  Fe14  1  0.663793  0.830635  0.774047  1
  Fe  Fe15  1  0.171956  0.341519  0.772010  1
  Fe  Fe16  1  0.833397  0.663327  0.272552  1
  Fe  Fe17  1  0.340339  0.170708  0.272093  1
  Fe  Fe18  1  0.832998  0.172217  0.273588  1
  O  O19  1  0.172283  0.841164  0.397460  1
  O  O20  1  0.483541  0.980090  0.650459  1
  O  O21  1  0.318090  0.659428  0.892906  1
  O  O22  1  0.668197  0.845082  0.401780  1
  O  O23  1  0.016770  0.510684  0.649318  1
  O  O24  1  0.479143  0.499933  0.643443  1
  O  O25  1  0.843601  0.672018  0.899202  1
  O  O26  1  0.165859  0.332821  0.393219  1
  O  O27  1  0.506805  0.483357  0.145591  1
  O  O28  1  0.333661  0.166075  0.893067  1
  O  O29  1  0.657359  0.318570  0.392592  1
  O  O30  1  0.011583  0.018875  0.162894  1
  O  O31  1  0.981049  0.481500  0.147159  1
  O  O32  1  0.510667  0.018543  0.149719  1
  O  O33  1  0.842058  0.178125  0.898964  1
  O  O34  1  0.018199  0.009194  0.662330  1
