# generated using pymatgen
data_Li3(FeO3)2
_symmetry_space_group_name_H-M   'P 1'
_cell_length_a   4.96100896
_cell_length_b   4.94352788
_cell_length_c   8.37632742
_cell_angle_alpha   89.99819777
_cell_angle_beta   90.00098228
_cell_angle_gamma   89.99898739
_symmetry_Int_Tables_number   1
_chemical_formula_structural   Li3(FeO3)2
_chemical_formula_sum   'Li6 Fe4 O12'
_cell_volume   205.42847589
_cell_formula_units_Z   2
loop_
 _symmetry_equiv_pos_site_id
 _symmetry_equiv_pos_as_xyz
  1  'x, y, z'
loop_
 _atom_site_type_symbol
 _atom_site_label
 _atom_site_symmetry_multiplicity
 _atom_site_fract_x
 _atom_site_fract_y
 _atom_site_fract_z
 _atom_site_occupancy
  Li  Li1  1  0.499953  0.999962  0.226058  1
  Li  Li2  1  0.499995  0.000015  0.930652  1
  Li  Li3  1  0.999960  0.000007  0.279228  1
  Li  Li4  1  0.499992  0.499999  0.779213  1
  Li  Li5  1  0.000009  0.499994  0.726012  1
  Li  Li6  1  0.999989  0.500016  0.430578  1
  Fe  Fe7  1  0.999995  0.000019  0.898522  1
  Fe  Fe8  1  0.499994  0.499987  0.398498  1
  Fe  Fe9  1  0.499998  0.000012  0.586748  1
  Fe  Fe10  1  0.999991  0.499993  0.086720  1
  O  O11  1  0.257894  0.149288  0.752486  1
  O  O12  1  0.205145  0.171077  0.072784  1
  O  O13  1  0.293024  0.185418  0.413287  1
  O  O14  1  0.793005  0.314571  0.913235  1
  O  O15  1  0.705120  0.328896  0.572774  1
  O  O16  1  0.757886  0.350694  0.252477  1
  O  O17  1  0.242148  0.649289  0.252482  1
  O  O18  1  0.294855  0.671100  0.572781  1
  O  O19  1  0.206968  0.685419  0.913253  1
  O  O20  1  0.706978  0.814535  0.413262  1
  O  O21  1  0.794856  0.828929  0.072776  1
  O  O22  1  0.742057  0.850696  0.752457  1
