# generated using pymatgen
data_LiFeO3
_symmetry_space_group_name_H-M   'P 1'
_cell_length_a   2.91113635
_cell_length_b   6.19466025
_cell_length_c   5.79948458
_cell_angle_alpha   72.88298373
_cell_angle_beta   75.46119716
_cell_angle_gamma   89.99352393
_symmetry_Int_Tables_number   1
_chemical_formula_structural   LiFeO3
_chemical_formula_sum   'Li2 Fe2 O6'
_cell_volume   96.44365945
_cell_formula_units_Z   2
loop_
 _symmetry_equiv_pos_site_id
 _symmetry_equiv_pos_as_xyz
  1  'x, y, z'
loop_
 _atom_site_type_symbol
 _atom_site_label
 _atom_site_symmetry_multiplicity
 _atom_site_fract_x
 _atom_site_fract_y
 _atom_site_fract_z
 _atom_site_occupancy
  Li  Li1  1  0.555370  0.512545  0.889368  1
  Li  Li2  1  0.777972  0.154136  0.443956  1
  Fe  Fe3  1  0.340304  0.637427  0.319431  1
  Fe  Fe4  1  0.993031  0.029222  0.013901  1
  O  O5  1  0.170368  0.453758  0.659360  1
  O  O6  1  0.162964  0.212905  0.673978  1
  O  O7  1  0.817717  0.833875  0.364525  1
  O  O8  1  0.880865  0.479382  0.238320  1
  O  O9  1  0.515611  0.832789  0.968815  1
  O  O10  1  0.452466  0.187290  0.095011  1
