# generated using pymatgen
data_Li6Fe5O12
_symmetry_space_group_name_H-M   'P 1'
_cell_length_a   5.07274076
_cell_length_b   5.07240674
_cell_length_c   9.52160745
_cell_angle_alpha   94.00200022
_cell_angle_beta   85.98232152
_cell_angle_gamma   63.46544590
_symmetry_Int_Tables_number   1
_chemical_formula_structural   Li6Fe5O12
_chemical_formula_sum   'Li6 Fe5 O12'
_cell_volume   217.24748333
_cell_formula_units_Z   1
loop_
 _symmetry_equiv_pos_site_id
 _symmetry_equiv_pos_as_xyz
  1  'x, y, z'
loop_
 _atom_site_type_symbol
 _atom_site_label
 _atom_site_symmetry_multiplicity
 _atom_site_fract_x
 _atom_site_fract_y
 _atom_site_fract_z
 _atom_site_occupancy
  Li  Li1  1  0.748079  0.748122  0.250024  1
  Li  Li2  1  0.344104  0.837485  0.494745  1
  Li  Li3  1  0.140781  0.680411  0.009356  1
  Li  Li4  1  0.837346  0.344251  0.005348  1
  Li  Li5  1  0.680604  0.140607  0.490562  1
  Li  Li6  1  0.078364  0.078348  0.249995  1
  Fe  Fe7  1  0.930362  0.930315  0.749999  1
  Fe  Fe8  1  0.006734  0.489844  0.497232  1
  Fe  Fe9  1  0.489848  0.006773  0.002727  1
  Fe  Fe10  1  0.575775  0.575748  0.749999  1
  Fe  Fe11  1  0.424732  0.424714  0.250000  1
  O  O12  1  0.684208  0.821445  0.615255  1
  O  O13  1  0.821470  0.684216  0.884717  1
  O  O14  1  0.235545  0.926289  0.876622  1
  O  O15  1  0.450084  0.710568  0.131534  1
  O  O16  1  0.057275  0.749192  0.372101  1
  O  O17  1  0.710512  0.450061  0.368466  1
  O  O18  1  0.262518  0.594621  0.632696  1
  O  O19  1  0.926366  0.235459  0.623351  1
  O  O20  1  0.594585  0.262531  0.867330  1
  O  O21  1  0.172010  0.340997  0.113779  1
  O  O22  1  0.749129  0.057337  0.127916  1
  O  O23  1  0.340927  0.172066  0.386263  1
