# generated using pymatgen
data_Li5Fe5O12
_symmetry_space_group_name_H-M   'P 1'
_cell_length_a   5.09978977
_cell_length_b   9.11940343
_cell_length_c   9.46223154
_cell_angle_alpha   96.68745701
_cell_angle_beta   94.70457470
_cell_angle_gamma   85.92095585
_symmetry_Int_Tables_number   1
_chemical_formula_structural   Li5Fe5O12
_chemical_formula_sum   'Li10 Fe10 O24'
_cell_volume   434.74995486
_cell_formula_units_Z   2
loop_
 _symmetry_equiv_pos_site_id
 _symmetry_equiv_pos_as_xyz
  1  'x, y, z'
loop_
 _atom_site_type_symbol
 _atom_site_label
 _atom_site_symmetry_multiplicity
 _atom_site_fract_x
 _atom_site_fract_y
 _atom_site_fract_z
 _atom_site_occupancy
  Li  Li1  1  0.731589  0.915905  0.000182  1
  Li  Li2  1  0.617005  0.464888  0.244606  1
  Li  Li3  1  0.648902  0.140545  0.262450  1
  Li  Li4  1  0.484429  0.666392  0.493793  1
  Li  Li5  1  0.526941  0.325633  0.496596  1
  Li  Li6  1  0.234768  0.424831  0.002134  1
  Li  Li7  1  0.263782  0.082606  0.008678  1
  Li  Li8  1  0.108757  0.966057  0.253679  1
  Li  Li9  1  0.095306  0.614074  0.239407  1
  Li  Li10  1  0.007785  0.829632  0.491860  1
  Fe  Fe11  1  0.994571  0.493189  0.498119  1
  Fe  Fe12  1  0.869315  0.709812  0.751050  1
  Fe  Fe13  1  0.893917  0.036314  0.745724  1
  Fe  Fe14  1  0.748987  0.258650  0.003090  1
  Fe  Fe15  1  0.630198  0.787313  0.247601  1
  Fe  Fe16  1  0.481236  -0.000167  0.496267  1
  Fe  Fe17  1  0.409781  0.537285  0.754350  1
  Fe  Fe18  1  0.239829  0.754727  0.006768  1
  Fe  Fe19  1  0.355439  0.209004  0.747572  1
  Fe  Fe20  1  0.140956  0.286652  0.252866  1
  O  O21  1  0.930537  0.784833  0.137069  1
  O  O22  1  0.937058  0.409672  0.119437  1
  O  O23  1  0.949269  0.131949  0.136018  1
  O  O24  1  0.844309  0.334931  0.384232  1
  O  O25  1  0.761829  0.957991  0.364127  1
  O  O26  1  0.799619  0.645650  0.368226  1
  O  O27  1  0.731657  0.868878  0.634057  1
  O  O28  1  0.699535  0.536772  0.625608  1
  O  O29  1  0.647272  0.155539  0.615880  1
  O  O30  1  0.418594  0.910922  0.110693  1
  O  O31  1  0.557158  0.704762  0.859467  1
  O  O32  1  0.420574  0.633961  0.138521  1
  O  O33  1  0.597111  0.090000  0.886548  1
  O  O34  1  0.533992  0.377672  0.873209  1
  O  O35  1  0.440406  0.276031  0.129371  1
  O  O36  1  0.337905  0.833353  0.386743  1
  O  O37  1  0.276578  0.463534  0.366864  1
  O  O38  1  0.323615  0.149598  0.364210  1
  O  O39  1  0.237898  0.378462  0.638384  1
  O  O40  1  0.162456  0.656112  0.613523  1
  O  O41  1  0.201202  0.031653  0.627868  1
  O  O42  1  0.112201  0.590592  0.882500  1
  O  O43  1  0.037774  0.880180  0.878982  1
  O  O44  1  0.054721  0.202596  0.864884  1
