# generated using pymatgen
data_Li(Fe2O3)4
_symmetry_space_group_name_H-M   'P 1'
_cell_length_a   5.97719935
_cell_length_b   5.99319596
_cell_length_c   13.44468743
_cell_angle_alpha   103.09989538
_cell_angle_beta   103.09597713
_cell_angle_gamma   89.94287590
_symmetry_Int_Tables_number   1
_chemical_formula_structural   Li(Fe2O3)4
_chemical_formula_sum   'Li2 Fe16 O24'
_cell_volume   456.24479600
_cell_formula_units_Z   2
loop_
 _symmetry_equiv_pos_site_id
 _symmetry_equiv_pos_as_xyz
  1  'x, y, z'
loop_
 _atom_site_type_symbol
 _atom_site_label
 _atom_site_symmetry_multiplicity
 _atom_site_fract_x
 _atom_site_fract_y
 _atom_site_fract_z
 _atom_site_occupancy
  Li  Li1  1  0.455044  0.211276  0.416175  1
  Li  Li2  1  0.458509  0.209418  0.916700  1
  Fe  Fe3  1  0.996613  0.992907  0.997507  1
  Fe  Fe4  1  0.785372  0.532225  0.080421  1
  Fe  Fe5  1  0.290598  0.534924  0.079549  1
  Fe  Fe6  1  0.579500  0.084983  0.163686  1
  Fe  Fe7  1  0.134820  0.879238  0.254294  1
  Fe  Fe8  1  0.134581  0.372435  0.252347  1
  Fe  Fe9  1  0.673969  0.668688  0.338387  1
  Fe  Fe10  1  0.963958  0.209800  0.416676  1
  Fe  Fe11  1  0.248369  0.747412  0.499576  1
  Fe  Fe12  1  0.783325  0.038552  0.580829  1
  Fe  Fe13  1  0.787191  0.543127  0.582915  1
  Fe  Fe14  1  0.336221  0.330920  0.667319  1
  Fe  Fe15  1  0.627207  0.881563  0.753552  1
  Fe  Fe16  1  0.125979  0.880826  0.751635  1
  Fe  Fe17  1  0.918970  0.421222  0.834670  1
  Fe  Fe18  1  0.453970  0.705916  0.916034  1
  O  O19  1  0.548280  0.306941  0.083183  1
  O  O20  1  0.544345  0.778367  0.076414  1
  O  O21  1  0.038580  0.302585  0.086832  1
  O  O22  1  0.039357  0.780830  0.089480  1
  O  O23  1  0.887803  0.621932  0.243502  1
  O  O24  1  0.363647  0.625761  0.251489  1
  O  O25  1  0.356728  0.122592  0.245497  1
  O  O26  1  0.886823  0.127143  0.253569  1
  O  O27  1  0.190926  0.973718  0.407314  1
  O  O28  1  0.191062  0.433770  0.405095  1
  O  O29  1  0.720593  0.971513  0.426371  1
  O  O30  1  0.722785  0.459771  0.427841  1
  O  O31  1  0.563702  0.294037  0.586842  1
  O  O32  1  0.026824  0.291431  0.580852  1
  O  O33  1  0.024804  0.802107  0.599512  1
  O  O34  1  0.565338  0.795196  0.592205  1
  O  O35  1  0.877488  0.641228  0.746477  1
  O  O36  1  0.875795  0.107438  0.747248  1
  O  O37  1  0.374638  0.644744  0.753867  1
  O  O38  1  0.369045  0.098378  0.745343  1
  O  O39  1  0.211843  0.944099  0.905581  1
  O  O40  1  0.697230  0.942786  0.907295  1
  O  O41  1  0.699505  0.470555  0.921780  1
  O  O42  1  0.218664  0.467644  0.914141  1
