# generated using pymatgen
data_Li3FeO3
_symmetry_space_group_name_H-M   'P 1'
_cell_length_a   5.41526247
_cell_length_b   11.27619726
_cell_length_c   5.44745207
_cell_angle_alpha   90.00000000
_cell_angle_beta   116.40163733
_cell_angle_gamma   90.00000000
_symmetry_Int_Tables_number   1
_chemical_formula_structural   Li3FeO3
_chemical_formula_sum   'Li12 Fe4 O12'
_cell_volume   297.94610256
_cell_formula_units_Z   4
loop_
 _symmetry_equiv_pos_site_id
 _symmetry_equiv_pos_as_xyz
  1  'x, y, z'
loop_
 _atom_site_type_symbol
 _atom_site_label
 _atom_site_symmetry_multiplicity
 _atom_site_fract_x
 _atom_site_fract_y
 _atom_site_fract_z
 _atom_site_occupancy
  Li  Li1  1  0.164399  0.239749  0.710861  1
  Li  Li2  1  0.270650  0.494414  0.764511  1
  Li  Li3  1  0.229350  0.994414  0.735489  1
  Li  Li4  1  0.335601  0.739749  0.789139  1
  Li  Li5  1  0.258198  0.623739  0.338813  1
  Li  Li6  1  0.241802  0.123739  0.161187  1
  Li  Li7  1  0.758198  0.876261  0.838813  1
  Li  Li8  1  0.741802  0.376261  0.661187  1
  Li  Li9  1  0.664399  0.260251  0.210861  1
  Li  Li10  1  0.770650  0.005586  0.264511  1
  Li  Li11  1  0.729350  0.505586  0.235489  1
  Li  Li12  1  0.835601  0.760251  0.289139  1
  Fe  Fe13  1  0.165406  0.360469  0.234744  1
  Fe  Fe14  1  0.334594  0.860469  0.265256  1
  Fe  Fe15  1  0.665406  0.139531  0.734744  1
  Fe  Fe16  1  0.834594  0.639531  0.765256  1
  O  O17  1  0.972409  0.368916  0.450985  1
  O  O18  1  0.167195  0.988885  0.345017  1
  O  O19  1  0.036211  0.749145  0.061614  1
  O  O20  1  0.472409  0.131084  0.950985  1
  O  O21  1  0.463789  0.249145  0.438386  1
  O  O22  1  0.667195  0.511115  0.845017  1
  O  O23  1  0.332805  0.488885  0.154983  1
  O  O24  1  0.536211  0.750855  0.561614  1
  O  O25  1  0.527591  0.868916  0.049015  1
  O  O26  1  0.963789  0.250855  0.938386  1
  O  O27  1  0.832805  0.011115  0.654983  1
  O  O28  1  0.027591  0.631084  0.549015  1
