# generated using pymatgen
data_LiB2O3
_symmetry_space_group_name_H-M   'P 1'
_cell_length_a   11.20783776
_cell_length_b   11.20783776
_cell_length_c   11.20783776
_cell_angle_alpha   114.09162104
_cell_angle_beta   107.21160424
_cell_angle_gamma   107.21160424
_symmetry_Int_Tables_number   1
_chemical_formula_structural   LiB2O3
_chemical_formula_sum   'Li8 B16 O24'
_cell_volume   1078.45619087
_cell_formula_units_Z   8
loop_
 _symmetry_equiv_pos_site_id
 _symmetry_equiv_pos_as_xyz
  1  'x, y, z'
loop_
 _atom_site_type_symbol
 _atom_site_label
 _atom_site_symmetry_multiplicity
 _atom_site_fract_x
 _atom_site_fract_y
 _atom_site_fract_z
 _atom_site_occupancy
  Li  Li1  1  0.020805  0.167630  0.656964  1
  Li  Li2  1  0.510666  0.667630  0.646825  1
  Li  Li3  1  0.010666  0.896825  0.417630  1
  Li  Li4  1  0.520805  0.906964  0.917630  1
  Li  Li5  1  0.979195  0.636158  0.146825  1
  Li  Li6  1  0.489334  0.136158  0.156964  1
  Li  Li7  1  0.989334  0.406963  0.886158  1
  Li  Li8  1  0.479195  0.396825  0.386158  1
  B  B9  1  0.230645  0.807433  0.408296  1
  B  B10  1  0.399136  0.307433  0.076787  1
  B  B11  1  0.899136  0.326787  0.057433  1
  B  B12  1  0.730645  0.658296  0.557433  1
  B  B13  1  0.769355  0.177651  0.576787  1
  B  B14  1  0.600864  0.677651  0.908296  1
  B  B15  1  0.100864  0.158296  0.427651  1
  B  B16  1  0.269355  0.826787  0.927651  1
  B  B17  1  0.933517  0.923991  0.710078  1
  B  B18  1  0.213913  0.423991  0.490472  1
  B  B19  1  0.713913  0.740472  0.173991  1
  B  B20  1  0.433517  0.960078  0.673991  1
  B  B21  1  0.066483  0.776560  0.990472  1
  B  B22  1  0.786087  0.276560  0.210078  1
  B  B23  1  0.286087  0.460078  0.026560  1
  B  B24  1  0.566483  0.240472  0.526560  1
  O  O25  1  0.100631  0.782170  0.355512  1
  O  O26  1  0.426658  0.282170  0.181539  1
  O  O27  1  0.926658  0.431539  0.032170  1
  O  O28  1  0.600631  0.605512  0.532170  1
  O  O29  1  0.899369  0.254881  0.681539  1
  O  O30  1  0.573342  0.754881  0.855512  1
  O  O31  1  0.073342  0.105512  0.504881  1
  O  O32  1  0.399369  0.931539  0.004881  1
  O  O33  1  0.691334  0.213686  0.232040  1
  O  O34  1  0.981645  0.713686  0.022352  1
  O  O35  1  0.481645  0.272352  0.463686  1
  O  O36  1  0.191334  0.482040  0.963686  1
  O  O37  1  0.308666  0.540707  0.522352  1
  O  O38  1  0.018355  0.040707  0.732040  1
  O  O39  1  0.518355  0.982040  0.790707  1
  O  O40  1  0.808666  0.772352  0.290707  1
  O  O41  1  0.346028  0.935603  0.551017  1
  O  O42  1  0.384586  0.435603  0.089576  1
  O  O43  1  0.884586  0.339576  0.185603  1
  O  O44  1  0.846028  0.801017  0.685603  1
  O  O45  1  0.653972  0.204990  0.589576  1
  O  O46  1  0.615414  0.704990  0.051017  1
  O  O47  1  0.115414  0.301017  0.454990  1
  O  O48  1  0.153972  0.839576  0.954990  1
