# generated using pymatgen
data_BaLi4
_symmetry_space_group_name_H-M   'P 1'
_cell_length_a   10.73215645
_cell_length_b   10.73215646
_cell_length_c   8.91775713
_cell_angle_alpha   90.00000000
_cell_angle_beta   90.00000000
_cell_angle_gamma   120.00000000
_symmetry_Int_Tables_number   1
_chemical_formula_structural   BaLi4
_chemical_formula_sum   'Ba6 Li24'
_cell_volume   889.52930975
_cell_formula_units_Z   6
loop_
 _symmetry_equiv_pos_site_id
 _symmetry_equiv_pos_as_xyz
  1  'x, y, z'
loop_
 _atom_site_type_symbol
 _atom_site_label
 _atom_site_symmetry_multiplicity
 _atom_site_fract_x
 _atom_site_fract_y
 _atom_site_fract_z
 _atom_site_occupancy
  Li  Li1  1  0.163015  0.836985  0.933358  1
  Li  Li2  1  0.163015  0.326029  0.933358  1
  Li  Li3  1  0.673971  0.836985  0.933358  1
  Li  Li4  1  0.326029  0.163015  0.433358  1
  Li  Li5  1  0.836985  0.673971  0.066642  1
  Li  Li6  1  0.836985  0.163015  0.433358  1
  Li  Li7  1  0.000000  0.000000  0.000000  1
  Li  Li8  1  0.000000  0.000000  0.500000  1
  Li  Li9  1  0.333333  0.666667  0.585976  1
  Li  Li10  1  0.666667  0.333333  0.085976  1
  Li  Li11  1  0.666667  0.333333  0.414024  1
  Li  Li12  1  0.333333  0.666667  0.914024  1
  Li  Li13  1  0.099141  0.198281  0.250000  1
  Li  Li14  1  0.900859  0.099141  0.750000  1
  Li  Li15  1  0.198281  0.099141  0.750000  1
  Li  Li16  1  0.801719  0.900859  0.250000  1
  Li  Li17  1  0.099141  0.900859  0.250000  1
  Li  Li18  1  0.900859  0.801719  0.750000  1
  Li  Li19  1  0.163015  0.326029  0.566642  1
  Li  Li20  1  0.836985  0.163015  0.066642  1
  Li  Li21  1  0.326029  0.163015  0.066642  1
  Li  Li22  1  0.673971  0.836985  0.566642  1
  Li  Li23  1  0.163015  0.836985  0.566642  1
  Li  Li24  1  0.836985  0.673971  0.433358  1
  Ba  Ba25  1  0.528131  0.056261  0.750000  1
  Ba  Ba26  1  0.471869  0.528131  0.250000  1
  Ba  Ba27  1  0.056261  0.528131  0.250000  1
  Ba  Ba28  1  0.943739  0.471869  0.750000  1
  Ba  Ba29  1  0.528131  0.471869  0.750000  1
  Ba  Ba30  1  0.471869  0.943739  0.250000  1
