# generated using pymatgen
data_Li(FeO2)3
_symmetry_space_group_name_H-M   'P 1'
_cell_length_a   5.14743876
_cell_length_b   5.14031028
_cell_length_c   10.55735936
_cell_angle_alpha   90.08546838
_cell_angle_beta   75.90491410
_cell_angle_gamma   120.03186909
_symmetry_Int_Tables_number   1
_chemical_formula_structural   Li(FeO2)3
_chemical_formula_sum   'Li2 Fe6 O12'
_cell_volume   232.13479704
_cell_formula_units_Z   2
loop_
 _symmetry_equiv_pos_site_id
 _symmetry_equiv_pos_as_xyz
  1  'x, y, z'
loop_
 _atom_site_type_symbol
 _atom_site_label
 _atom_site_symmetry_multiplicity
 _atom_site_fract_x
 _atom_site_fract_y
 _atom_site_fract_z
 _atom_site_occupancy
  Li  Li1  1  0.498958  0.578060  0.246744  1
  Li  Li2  1  0.832276  0.078239  0.746246  1
  Fe  Fe3  1  0.004391  0.833736  0.493333  1
  Fe  Fe4  1  0.006326  0.668677  0.993388  1
  Fe  Fe5  1  0.330355  0.500158  0.509205  1
  Fe  Fe6  1  0.337463  0.334442  0.991976  1
  Fe  Fe7  1  0.669256  0.168623  0.493512  1
  Fe  Fe8  1  0.660420  0.999527  0.009753  1
  O  O9  1  0.909130  0.956591  0.102008  1
  O  O10  1  0.597275  0.797117  0.600181  1
  O  O11  1  0.399562  0.838307  0.400110  1
  O  O12  1  0.734478  0.730897  0.897923  1
  O  O13  1  0.287415  0.646653  0.102067  1
  O  O14  1  0.946592  0.456872  0.602186  1
  O  O15  1  0.705249  0.532771  0.399646  1
  O  O16  1  0.039456  0.339393  0.900272  1
  O  O17  1  0.600478  0.298155  0.099666  1
  O  O18  1  0.256214  0.147450  0.602154  1
  O  O19  1  0.099882  0.232205  0.397427  1
  O  O20  1  0.426141  0.032786  0.899699  1
