# generated using pymatgen
data_Li9(FeO4)2
_symmetry_space_group_name_H-M   'P 1'
_cell_length_a   5.49924370
_cell_length_b   6.81552949
_cell_length_c   11.00029323
_cell_angle_alpha   90.00000000
_cell_angle_beta   78.11532643
_cell_angle_gamma   90.00000000
_symmetry_Int_Tables_number   1
_chemical_formula_structural   Li9(FeO4)2
_chemical_formula_sum   'Li18 Fe4 O16'
_cell_volume   403.45593837
_cell_formula_units_Z   2
loop_
 _symmetry_equiv_pos_site_id
 _symmetry_equiv_pos_as_xyz
  1  'x, y, z'
loop_
 _atom_site_type_symbol
 _atom_site_label
 _atom_site_symmetry_multiplicity
 _atom_site_fract_x
 _atom_site_fract_y
 _atom_site_fract_z
 _atom_site_occupancy
  Li  Li1  1  0.092735  0.204007  0.280291  1
  Li  Li2  1  0.002180  0.249776  0.661083  1
  Li  Li3  1  0.300038  0.529541  0.060251  1
  Li  Li4  1  0.196340  0.024193  0.438141  1
  Li  Li5  1  0.206436  0.463415  0.428533  1
  Li  Li6  1  0.113778  0.519488  0.800929  1
  Li  Li7  1  0.393922  0.741932  0.206449  1
  Li  Li8  1  0.502180  0.250224  0.161083  1
  Li  Li9  1  0.392003  0.037414  0.696922  1
  Li  Li10  1  0.613778  0.980512  0.300929  1
  Li  Li11  1  0.473084  0.757520  0.841552  1
  Li  Li12  1  0.592735  0.295993  0.780291  1
  Li  Li13  1  0.892003  0.462586  0.196922  1
  Li  Li14  1  0.800038  0.970459  0.560251  1
  Li  Li15  1  0.696340  0.475807  0.938141  1
  Li  Li16  1  0.706436  0.036585  0.928533  1
  Li  Li17  1  0.973084  0.742480  0.341552  1
  Li  Li18  1  0.893922  0.758068  0.706449  1
  Fe  Fe19  1  0.335954  0.743024  0.560805  1
  Fe  Fe20  1  0.179961  0.234955  0.943671  1
  Fe  Fe21  1  0.835954  0.756976  0.060805  1
  Fe  Fe22  1  0.679961  0.265045  0.443671  1
  O  O23  1  0.072335  0.715768  0.153760  1
  O  O24  1  0.161978  0.275793  0.113276  1
  O  O25  1  0.143820  0.528621  0.620785  1
  O  O26  1  0.124497  0.967261  0.613658  1
  O  O27  1  0.337746  0.756842  0.389623  1
  O  O28  1  0.412086  0.227305  0.356502  1
  O  O29  1  0.643820  0.971379  0.120785  1
  O  O30  1  0.624497  0.532739  0.113658  1
  O  O31  1  0.373703  0.476758  0.886598  1
  O  O32  1  0.404342  0.047103  0.868002  1
  O  O33  1  0.572335  0.784232  0.653760  1
  O  O34  1  0.661978  0.224207  0.613276  1
  O  O35  1  0.873703  0.023242  0.386598  1
  O  O36  1  0.904342  0.452897  0.368002  1
  O  O37  1  0.837746  0.743158  0.889623  1
  O  O38  1  0.912086  0.272695  0.856502  1
