# generated using pymatgen
data_Li(FeO2)2
_symmetry_space_group_name_H-M   'P 1'
_cell_length_a   5.08872238
_cell_length_b   5.91229422
_cell_length_c   5.95339465
_cell_angle_alpha   119.79394081
_cell_angle_beta   88.89470140
_cell_angle_gamma   91.12524976
_symmetry_Int_Tables_number   1
_chemical_formula_structural   Li(FeO2)2
_chemical_formula_sum   'Li2 Fe4 O8'
_cell_volume   155.39897700
_cell_formula_units_Z   2
loop_
 _symmetry_equiv_pos_site_id
 _symmetry_equiv_pos_as_xyz
  1  'x, y, z'
loop_
 _atom_site_type_symbol
 _atom_site_label
 _atom_site_symmetry_multiplicity
 _atom_site_fract_x
 _atom_site_fract_y
 _atom_site_fract_z
 _atom_site_occupancy
  Li  Li1  1  0.497051  0.039371  0.542210  1
  Li  Li2  1  0.991833  0.701336  0.201482  1
  Fe  Fe3  1  0.500984  0.268401  0.234933  1
  Fe  Fe4  1  0.500410  0.733153  0.771183  1
  Fe  Fe5  1  0.001461  0.017832  0.980892  1
  Fe  Fe6  1  0.000686  0.482887  0.516683  1
  O  O7  1  0.812073  0.139957  0.337063  1
  O  O8  1  0.840742  0.656481  0.868379  1
  O  O9  1  0.687572  0.612643  0.410419  1
  O  O10  1  0.660173  0.096738  0.885204  1
  O  O11  1  0.315129  0.912178  0.112451  1
  O  O12  1  0.341044  0.377365  0.587988  1
  O  O13  1  0.164957  0.371106  0.158627  1
  O  O14  1  0.186117  0.840419  0.642356  1
