# generated using pymatgen
data_Li8(FeO2)5
_symmetry_space_group_name_H-M   'P 1'
_cell_length_a   5.43978891
_cell_length_b   6.77223568
_cell_length_c   8.02902213
_cell_angle_alpha   90.43749942
_cell_angle_beta   102.80415805
_cell_angle_gamma   113.38418660
_symmetry_Int_Tables_number   1
_chemical_formula_structural   Li8(FeO2)5
_chemical_formula_sum   'Li8 Fe5 O10'
_cell_volume   263.22543148
_cell_formula_units_Z   1
loop_
 _symmetry_equiv_pos_site_id
 _symmetry_equiv_pos_as_xyz
  1  'x, y, z'
loop_
 _atom_site_type_symbol
 _atom_site_label
 _atom_site_symmetry_multiplicity
 _atom_site_fract_x
 _atom_site_fract_y
 _atom_site_fract_z
 _atom_site_occupancy
  Li  Li1  1  0.902178  0.341833  0.068822  1
  Li  Li2  1  0.706808  0.152827  0.443059  1
  Li  Li3  1  0.497822  0.058167  0.131178  1
  Li  Li4  1  0.693192  0.247173  0.756941  1
  Li  Li5  1  0.274152  0.713174  0.265582  1
  Li  Li6  1  0.313921  0.875679  0.551078  1
  Li  Li7  1  0.086079  0.524321  0.648922  1
  Li  Li8  1  0.125848  0.686826  0.934418  1
  Fe  Fe9  1  0.903365  0.900018  0.198149  1
  Fe  Fe10  1  0.496635  0.499982  0.001851  1
  Fe  Fe11  1  0.700000  0.700000  0.600000  1
  Fe  Fe12  1  0.291112  0.298876  0.403824  1
  Fe  Fe13  1  0.108888  0.101124  0.796176  1
  O  O14  1  0.898832  0.173438  0.263698  1
  O  O15  1  0.899785  0.632754  0.104003  1
  O  O16  1  0.680714  0.415832  0.556992  1
  O  O17  1  0.296307  0.011875  0.324923  1
  O  O18  1  0.500215  0.767246  0.095997  1
  O  O19  1  0.501168  0.226562  0.936302  1
  O  O20  1  0.719286  0.984168  0.643008  1
  O  O21  1  0.323808  0.593372  0.486289  1
  O  O22  1  0.103693  0.388125  0.875077  1
  O  O23  1  0.076192  0.806628  0.713711  1
