# generated using pymatgen
data_Sr6Li23
_symmetry_space_group_name_H-M   'P 1'
_cell_length_a   10.44513444
_cell_length_b   10.44513444
_cell_length_c   10.44513444
_cell_angle_alpha   60.00000001
_cell_angle_beta   60.00000000
_cell_angle_gamma   60.00000001
_symmetry_Int_Tables_number   1
_chemical_formula_structural   Sr6Li23
_chemical_formula_sum   'Sr6 Li23'
_cell_volume   805.79970637
_cell_formula_units_Z   1
loop_
 _symmetry_equiv_pos_site_id
 _symmetry_equiv_pos_as_xyz
  1  'x, y, z'
loop_
 _atom_site_type_symbol
 _atom_site_label
 _atom_site_symmetry_multiplicity
 _atom_site_fract_x
 _atom_site_fract_y
 _atom_site_fract_z
 _atom_site_occupancy
  Li  Li1  1  0.500000  0.500000  0.500000  1
  Li  Li2  1  0.500000  0.000000  0.000000  1
  Li  Li3  1  0.000000  0.000000  0.500000  1
  Li  Li4  1  0.500000  0.500000  0.000000  1
  Li  Li5  1  0.000000  0.500000  0.500000  1
  Li  Li6  1  0.000000  0.500000  0.000000  1
  Li  Li7  1  0.500000  0.000000  0.500000  1
  Li  Li8  1  0.378268  0.378268  0.378268  1
  Li  Li9  1  0.621732  0.621732  0.134804  1
  Li  Li10  1  0.134804  0.621732  0.621732  1
  Li  Li11  1  0.621732  0.134804  0.621732  1
  Li  Li12  1  0.865196  0.378268  0.378268  1
  Li  Li13  1  0.378268  0.865196  0.378268  1
  Li  Li14  1  0.378268  0.378268  0.865196  1
  Li  Li15  1  0.621732  0.621732  0.621732  1
  Li  Li16  1  0.177621  0.177621  0.177621  1
  Li  Li17  1  0.822379  0.822379  0.532863  1
  Li  Li18  1  0.532863  0.822379  0.822379  1
  Li  Li19  1  0.822379  0.532863  0.822379  1
  Li  Li20  1  0.467137  0.177621  0.177621  1
  Li  Li21  1  0.177621  0.467137  0.177621  1
  Li  Li22  1  0.177621  0.177621  0.467137  1
  Li  Li23  1  0.822379  0.822379  0.822379  1
  Sr  Sr24  1  0.793912  0.206088  0.206088  1
  Sr  Sr25  1  0.793912  0.793912  0.206088  1
  Sr  Sr26  1  0.206088  0.206088  0.793912  1
  Sr  Sr27  1  0.793912  0.206088  0.793912  1
  Sr  Sr28  1  0.206088  0.793912  0.206088  1
  Sr  Sr29  1  0.206088  0.793912  0.793912  1
