# generated using pymatgen
data_Li2S
_symmetry_space_group_name_H-M   'P 1'
_cell_length_a   3.99635662
_cell_length_b   3.99635640
_cell_length_c   44.66346408
_cell_angle_alpha   60.51829035
_cell_angle_beta   60.51828833
_cell_angle_gamma   59.99481120
_symmetry_Int_Tables_number   1
_chemical_formula_structural   Li2S
_chemical_formula_sum   'Li22 S11'
_cell_volume   508.28435462
_cell_formula_units_Z   11
loop_
 _symmetry_equiv_pos_site_id
 _symmetry_equiv_pos_as_xyz
  1  'x, y, z'
loop_
 _atom_site_type_symbol
 _atom_site_label
 _atom_site_symmetry_multiplicity
 _atom_site_fract_x
 _atom_site_fract_y
 _atom_site_fract_z
 _atom_site_occupancy
  Li  Li1  1  0.526207  0.526207  0.038355  1
  Li  Li2  1  0.522153  0.522153  0.130343  1
  Li  Li3  1  0.751922  0.751922  0.067654  1
  Li  Li4  1  0.755206  0.755206  0.157680  1
  Li  Li5  1  0.533199  0.533199  0.218222  1
  Li  Li6  1  0.237722  0.237722  0.298802  1
  Li  Li7  1  0.742194  0.742194  0.252130  1
  Li  Li8  1  0.246172  0.246172  0.387411  1
  Li  Li9  1  0.248121  0.248121  0.477795  1
  Li  Li10  1  0.746527  0.746527  0.341850  1
  Li  Li11  1  0.748152  0.748152  0.432323  1
  Li  Li12  1  0.248464  0.248464  0.568597  1
  Li  Li13  1  0.749658  0.749658  0.522811  1
  Li  Li14  1  0.248538  0.248538  0.659494  1
  Li  Li15  1  0.749907  0.749907  0.613655  1
  Li  Li16  1  0.248382  0.248382  0.750432  1
  Li  Li17  1  0.749890  0.749890  0.704561  1
  Li  Li18  1  0.247615  0.247615  0.841558  1
  Li  Li19  1  0.749709  0.749709  0.795515  1
  Li  Li20  1  0.239387  0.239387  0.934718  1
  Li  Li21  1  0.747729  0.747729  0.886990  1
  Li  Li22  1  0.754732  0.754732  0.976021  1
  S  S23  1  0.986841  0.986841  0.003543  1
  S  S24  1  0.986737  0.986737  0.094509  1
  S  S25  1  0.986134  0.986134  0.185610  1
  S  S26  1  0.997146  0.997146  0.364401  1
  S  S27  1  0.995766  0.995766  0.273883  1
  S  S28  1  0.000574  0.000574  0.454396  1
  S  S29  1  0.001668  0.001668  0.635919  1
  S  S30  1  0.001578  0.001578  0.726828  1
  S  S31  1  0.001500  0.001500  0.545042  1
  S  S32  1  0.001080  0.001080  0.817875  1
  S  S33  1  0.999389  0.999389  0.909262  1
