# generated using pymatgen
data_Li4FeO3
_symmetry_space_group_name_H-M   'P 1'
_cell_length_a   5.14754313
_cell_length_b   5.67570073
_cell_length_c   6.97105783
_cell_angle_alpha   71.46665617
_cell_angle_beta   89.96214986
_cell_angle_gamma   62.99851470
_symmetry_Int_Tables_number   1
_chemical_formula_structural   Li4FeO3
_chemical_formula_sum   'Li8 Fe2 O6'
_cell_volume   169.54848511
_cell_formula_units_Z   2
loop_
 _symmetry_equiv_pos_site_id
 _symmetry_equiv_pos_as_xyz
  1  'x, y, z'
loop_
 _atom_site_type_symbol
 _atom_site_label
 _atom_site_symmetry_multiplicity
 _atom_site_fract_x
 _atom_site_fract_y
 _atom_site_fract_z
 _atom_site_occupancy
  Li  Li1  1  0.964102  0.768717  0.933110  1
  Li  Li2  1  0.265880  0.769492  0.435518  1
  Li  Li3  1  0.876797  0.552378  0.641778  1
  Li  Li4  1  0.517231  0.401177  0.838138  1
  Li  Li5  1  0.566906  0.554642  0.141339  1
  Li  Li6  1  0.079138  0.403681  0.337361  1
  Li  Li7  1  0.714342  0.268590  0.527196  1
  Li  Li8  1  0.015592  0.268024  0.027937  1
  Fe  Fe9  1  0.340368  0.036370  0.749942  1
  Fe  Fe10  1  0.621827  0.037596  0.250451  1
  O  O11  1  0.670631  0.668469  0.860800  1
  O  O12  1  0.658572  0.669721  0.361163  1
  O  O13  1  0.299806  0.403191  0.592108  1
  O  O14  1  0.946683  0.129726  0.806278  1
  O  O15  1  0.295072  0.403683  0.091848  1
  O  O16  1  0.922079  0.130297  0.306560  1
