# generated using pymatgen
data_Li11Ge6
_symmetry_space_group_name_H-M   'P 1'
_cell_length_a   4.31922668
_cell_length_b   10.62123939
_cell_length_c   12.62266340
_cell_angle_alpha   90.00000000
_cell_angle_beta   99.85120855
_cell_angle_gamma   90.00000000
_symmetry_Int_Tables_number   1
_chemical_formula_structural   Li11Ge6
_chemical_formula_sum   'Li22 Ge12'
_cell_volume   570.53331682
_cell_formula_units_Z   2
loop_
 _symmetry_equiv_pos_site_id
 _symmetry_equiv_pos_as_xyz
  1  'x, y, z'
loop_
 _atom_site_type_symbol
 _atom_site_label
 _atom_site_symmetry_multiplicity
 _atom_site_fract_x
 _atom_site_fract_y
 _atom_site_fract_z
 _atom_site_occupancy
  Li  Li1  1  0.179846  0.119748  0.359691  1
  Li  Li2  1  0.820154  0.880252  0.640309  1
  Li  Li3  1  0.820154  0.619748  0.640309  1
  Li  Li4  1  0.179846  0.380252  0.359691  1
  Li  Li5  1  0.909464  -0.000706  0.818927  1
  Li  Li6  1  0.090536  1.000706  0.181073  1
  Li  Li7  1  0.090536  0.499294  0.181073  1
  Li  Li8  1  0.909464  0.500706  0.818927  1
  Li  Li9  1  0.143303  0.750000  0.286606  1
  Li  Li10  1  0.856697  0.250000  0.713394  1
  Li  Li11  1  0.025873  0.750000  0.051746  1
  Li  Li12  1  0.974127  0.250000  0.948254  1
  Li  Li13  1  0.639455  0.250000  0.278911  1
  Li  Li14  1  0.360545  0.750000  0.721089  1
  Li  Li15  1  0.535000  0.112595  0.070001  1
  Li  Li16  1  0.465000  0.887405  0.929999  1
  Li  Li17  1  0.465000  0.612595  0.929999  1
  Li  Li18  1  0.535000  0.387405  0.070001  1
  Li  Li19  1  0.758269  0.394420  0.516538  1
  Li  Li20  1  0.241731  0.605580  0.483462  1
  Li  Li21  1  0.241731  0.894420  0.483462  1
  Li  Li22  1  0.758269  0.105580  0.516538  1
  Ge  Ge23  1  0.919271  0.750000  0.838542  1
  Ge  Ge24  1  0.080729  0.250000  0.161458  1
  Ge  Ge25  1  0.728427  0.750000  0.456854  1
  Ge  Ge26  1  0.271573  0.250000  0.543146  1
  Ge  Ge27  1  0.328851  0.447969  0.657701  1
  Ge  Ge28  1  0.671149  0.552031  0.342299  1
  Ge  Ge29  1  0.671149  0.947969  0.342299  1
  Ge  Ge30  1  0.328851  0.052031  0.657701  1
  Ge  Ge31  1  0.424499  0.366017  0.848997  1
  Ge  Ge32  1  0.575501  0.633983  0.151003  1
  Ge  Ge33  1  0.575501  0.866017  0.151003  1
  Ge  Ge34  1  0.424499  0.133983  0.848997  1
