# generated using pymatgen
data_Li2(FeO2)3
_symmetry_space_group_name_H-M   'P 1'
_cell_length_a   9.04784339
_cell_length_b   5.34408153
_cell_length_c   5.34407940
_cell_angle_alpha   64.86544843
_cell_angle_beta   99.78262317
_cell_angle_gamma   80.21737170
_symmetry_Int_Tables_number   1
_chemical_formula_structural   Li2(FeO2)3
_chemical_formula_sum   'Li4 Fe6 O12'
_cell_volume   221.88159536
_cell_formula_units_Z   2
loop_
 _symmetry_equiv_pos_site_id
 _symmetry_equiv_pos_as_xyz
  1  'x, y, z'
loop_
 _atom_site_type_symbol
 _atom_site_label
 _atom_site_symmetry_multiplicity
 _atom_site_fract_x
 _atom_site_fract_y
 _atom_site_fract_z
 _atom_site_occupancy
  Li  Li1  1  0.006060  0.246966  0.252993  1
  Li  Li2  1  0.327215  0.586443  0.913631  1
  Li  Li3  1  0.506209  0.996941  0.003096  1
  Li  Li4  1  0.827116  0.336377  0.663518  1
  Fe  Fe5  1  0.993332  0.753339  0.746707  1
  Fe  Fe6  1  0.166706  0.166660  0.833332  1
  Fe  Fe7  1  0.339996  0.079977  0.419977  1
  Fe  Fe8  1  0.493254  0.503331  0.496691  1
  Fe  Fe9  1  0.666629  0.416658  0.083275  1
  Fe  Fe10  1  0.840042  0.830075  0.170015  1
  O  O11  1  0.993238  0.987645  0.961617  1
  O  O12  1  0.993220  0.519072  0.531624  1
  O  O13  1  0.166705  0.383970  0.050777  1
  O  O14  1  0.340130  0.294980  0.654318  1
  O  O15  1  0.166677  0.949341  0.615836  1
  O  O16  1  0.340114  0.864852  0.185773  1
  O  O17  1  0.493197  0.288305  0.262540  1
  O  O18  1  0.493161  0.718460  0.730643  1
  O  O19  1  0.666682  0.199288  0.865857  1
  O  O20  1  0.666654  0.634177  0.300885  1
  O  O21  1  0.840159  0.063981  0.385128  1
  O  O22  1  0.840168  0.595829  0.955101  1
