# generated using pymatgen
data_Li(FeO2)3
_symmetry_space_group_name_H-M   'P 1'
_cell_length_a   5.27061046
_cell_length_b   5.18781740
_cell_length_c   5.11173786
_cell_angle_alpha   60.48394677
_cell_angle_beta   73.60916903
_cell_angle_gamma   82.00858557
_symmetry_Int_Tables_number   1
_chemical_formula_structural   Li(FeO2)3
_chemical_formula_sum   'Li1 Fe3 O6'
_cell_volume   116.68722301
_cell_formula_units_Z   1
loop_
 _symmetry_equiv_pos_site_id
 _symmetry_equiv_pos_as_xyz
  1  'x, y, z'
loop_
 _atom_site_type_symbol
 _atom_site_label
 _atom_site_symmetry_multiplicity
 _atom_site_fract_x
 _atom_site_fract_y
 _atom_site_fract_z
 _atom_site_occupancy
  Li  Li1  1  0.000000  0.333333  0.333333  1
  Fe  Fe2  1  0.500000  0.333333  0.833333  1
  Fe  Fe3  1  0.500000  0.001744  0.499127  1
  Fe  Fe4  1  0.500000  0.664922  0.167539  1
  O  O5  1  0.699057  0.006405  0.754020  1
  O  O6  1  0.699057  0.660261  0.427092  1
  O  O7  1  0.711186  0.333333  0.115092  1
  O  O8  1  0.300943  0.660261  0.912647  1
  O  O9  1  0.288814  0.333333  0.551575  1
  O  O10  1  0.300943  0.006405  0.239575  1
