# generated using pymatgen
data_Li21Si5
_symmetry_space_group_name_H-M   'P 1'
_cell_length_a   13.10445295
_cell_length_b   13.10445295
_cell_length_c   13.10445295
_cell_angle_alpha   60.00000002
_cell_angle_beta   60.00000002
_cell_angle_gamma   60.00000001
_symmetry_Int_Tables_number   1
_chemical_formula_structural   Li21Si5
_chemical_formula_sum   'Li84 Si20'
_cell_volume   1591.26199344
_cell_formula_units_Z   4
loop_
 _symmetry_equiv_pos_site_id
 _symmetry_equiv_pos_as_xyz
  1  'x, y, z'
loop_
 _atom_site_type_symbol
 _atom_site_label
 _atom_site_symmetry_multiplicity
 _atom_site_fract_x
 _atom_site_fract_y
 _atom_site_fract_z
 _atom_site_occupancy
  Li  Li1  1  0.756593  0.756593  0.065351  1
  Li  Li2  1  0.756593  0.065351  0.421462  1
  Li  Li3  1  0.065351  0.756593  0.421462  1
  Li  Li4  1  0.756593  0.421462  0.756593  1
  Li  Li5  1  0.421462  0.756593  0.756593  1
  Li  Li6  1  0.065351  0.421462  0.756593  1
  Li  Li7  1  0.421462  0.065351  0.756593  1
  Li  Li8  1  0.421462  0.756593  0.065351  1
  Li  Li9  1  0.756593  0.065351  0.756593  1
  Li  Li10  1  0.065351  0.756593  0.756593  1
  Li  Li11  1  0.756593  0.421462  0.065351  1
  Li  Li12  1  0.756593  0.756593  0.421462  1
  Li  Li13  1  0.269953  0.269953  0.539687  1
  Li  Li14  1  0.269953  0.539687  0.920406  1
  Li  Li15  1  0.539687  0.269953  0.920406  1
  Li  Li16  1  0.269953  0.920406  0.269953  1
  Li  Li17  1  0.920406  0.269953  0.269953  1
  Li  Li18  1  0.539687  0.920406  0.269953  1
  Li  Li19  1  0.920406  0.539687  0.269953  1
  Li  Li20  1  0.920406  0.269953  0.539687  1
  Li  Li21  1  0.052780  0.052780  0.052780  1
  Li  Li22  1  0.052780  0.052780  0.841659  1
  Li  Li23  1  0.841659  0.052780  0.052780  1
  Li  Li24  1  0.052780  0.841659  0.052780  1
  Li  Li25  1  0.168433  0.168433  0.168433  1
  Li  Li26  1  0.168433  0.168433  0.494700  1
  Li  Li27  1  0.494700  0.168433  0.168433  1
  Li  Li28  1  0.168433  0.494700  0.168433  1
  Li  Li29  1  0.307000  0.307000  0.307000  1
  Li  Li30  1  0.307000  0.307000  0.079001  1
  Li  Li31  1  0.079001  0.307000  0.307000  1
  Li  Li32  1  0.307000  0.079001  0.307000  1
  Li  Li33  1  0.436239  0.436239  0.436239  1
  Li  Li34  1  0.436239  0.436239  0.691283  1
  Li  Li35  1  0.691283  0.436239  0.436239  1
  Li  Li36  1  0.436239  0.691283  0.436239  1
  Li  Li37  1  0.580111  0.580111  0.580111  1
  Li  Li38  1  0.580111  0.580111  0.259667  1
  Li  Li39  1  0.259667  0.580111  0.580111  1
  Li  Li40  1  0.580111  0.259667  0.580111  1
  Li  Li41  1  0.806084  0.806084  0.806084  1
  Li  Li42  1  0.806084  0.806084  0.581747  1
  Li  Li43  1  0.581747  0.806084  0.806084  1
  Li  Li44  1  0.806084  0.581747  0.806084  1
  Li  Li45  1  0.824675  0.175325  0.175325  1
  Li  Li46  1  0.175325  0.175325  0.824675  1
  Li  Li47  1  0.824675  0.824675  0.175325  1
  Li  Li48  1  0.175325  0.824675  0.824675  1
  Li  Li49  1  0.175325  0.824675  0.175325  1
  Li  Li50  1  0.824675  0.175325  0.824675  1
  Li  Li51  1  0.922760  0.577240  0.577240  1
  Li  Li52  1  0.577240  0.577240  0.922760  1
  Li  Li53  1  0.922760  0.922760  0.577240  1
  Li  Li54  1  0.577240  0.922760  0.922760  1
  Li  Li55  1  0.577240  0.922760  0.577240  1
  Li  Li56  1  0.922760  0.577240  0.922760  1
  Li  Li57  1  0.012751  0.012751  0.669173  1
  Li  Li58  1  0.012751  0.669173  0.305325  1
  Li  Li59  1  0.305325  0.012751  0.012751  1
  Li  Li60  1  0.012751  0.305325  0.012751  1
  Li  Li61  1  0.669173  0.012751  0.305325  1
  Li  Li62  1  0.669173  0.305325  0.012751  1
  Li  Li63  1  0.305325  0.669173  0.012751  1
  Li  Li64  1  0.669173  0.012751  0.012751  1
  Li  Li65  1  0.012751  0.669173  0.012751  1
  Li  Li66  1  0.305325  0.012751  0.669173  1
  Li  Li67  1  0.012751  0.305325  0.669173  1
  Li  Li68  1  0.012751  0.012751  0.305325  1
  Li  Li69  1  0.511224  0.511224  0.807767  1
  Li  Li70  1  0.511224  0.807767  0.169785  1
  Li  Li71  1  0.169785  0.511224  0.511224  1
  Li  Li72  1  0.511224  0.169785  0.511224  1
  Li  Li73  1  0.807767  0.511224  0.169785  1
  Li  Li74  1  0.807767  0.169785  0.511224  1
  Li  Li75  1  0.169785  0.807767  0.511224  1
  Li  Li76  1  0.807767  0.511224  0.511224  1
  Li  Li77  1  0.511224  0.807767  0.511224  1
  Li  Li78  1  0.169785  0.511224  0.807767  1
  Li  Li79  1  0.511224  0.169785  0.807767  1
  Li  Li80  1  0.511224  0.511224  0.169785  1
  Li  Li81  1  0.269953  0.269953  0.920406  1
  Li  Li82  1  0.269953  0.920406  0.539687  1
  Li  Li83  1  0.539687  0.269953  0.269953  1
  Li  Li84  1  0.269953  0.539687  0.269953  1
  Si  Si85  1  0.428092  0.071908  0.428092  1
  Si  Si86  1  0.071908  0.428092  0.071908  1
  Si  Si87  1  0.071908  0.428092  0.428092  1
  Si  Si88  1  0.428092  0.428092  0.071908  1
  Si  Si89  1  0.071908  0.071908  0.428092  1
  Si  Si90  1  0.428092  0.071908  0.071908  1
  Si  Si91  1  0.679815  0.320185  0.679815  1
  Si  Si92  1  0.320185  0.679815  0.320185  1
  Si  Si93  1  0.320185  0.679815  0.679815  1
  Si  Si94  1  0.679815  0.679815  0.320185  1
  Si  Si95  1  0.320185  0.320185  0.679815  1
  Si  Si96  1  0.679815  0.320185  0.320185  1
  Si  Si97  1  0.664904  0.005288  0.664904  1
  Si  Si98  1  0.005288  0.664904  0.664904  1
  Si  Si99  1  0.664904  0.664904  0.005288  1
  Si  Si100  1  0.664904  0.664904  0.664904  1
  Si  Si101  1  0.910166  0.269502  0.910166  1
  Si  Si102  1  0.269502  0.910166  0.910166  1
  Si  Si103  1  0.910166  0.910166  0.269502  1
  Si  Si104  1  0.910166  0.910166  0.910166  1
