# generated using pymatgen
data_Li4(FeO2)9
_symmetry_space_group_name_H-M   'P 1'
_cell_length_a   9.24308706
_cell_length_b   24.86314771
_cell_length_c   2.94812159
_cell_angle_alpha   90.00039999
_cell_angle_beta   90.00010503
_cell_angle_gamma   89.62035293
_symmetry_Int_Tables_number   1
_chemical_formula_structural   Li4(FeO2)9
_chemical_formula_sum   'Li8 Fe18 O36'
_cell_volume   677.49955028
_cell_formula_units_Z   2
loop_
 _symmetry_equiv_pos_site_id
 _symmetry_equiv_pos_as_xyz
  1  'x, y, z'
loop_
 _atom_site_type_symbol
 _atom_site_label
 _atom_site_symmetry_multiplicity
 _atom_site_fract_x
 _atom_site_fract_y
 _atom_site_fract_z
 _atom_site_occupancy
  Li  Li1  1  0.189669  0.983716  0.999999  1
  Li  Li2  1  0.188151  0.194731  0.000001  1
  Li  Li3  1  0.314811  0.696078  0.000001  1
  Li  Li4  1  0.311041  0.486599  -0.000000  1
  Li  Li5  1  0.688365  0.515902  0.000001  1
  Li  Li6  1  0.688332  0.304959  0.999999  1
  Li  Li7  1  0.812675  0.802970  0.999993  1
  Li  Li8  1  0.810245  0.014886  1.000000  1
  Fe  Fe9  1  0.998942  0.501554  0.999998  1
  Fe  Fe10  1  0.993598  0.104606  0.000002  1
  Fe  Fe11  1  0.991873  0.309992  0.999998  1
  Fe  Fe12  1  0.159748  0.587389  0.500001  1
  Fe  Fe13  1  0.171870  0.804897  0.499998  1
  Fe  Fe14  1  0.333659  0.306949  0.500001  1
  Fe  Fe15  1  0.340517  0.084523  0.500001  1
  Fe  Fe16  1  0.500228  0.812943  0.999988  1
  Fe  Fe17  1  0.508278  0.606091  0.000016  1
  Fe  Fe18  1  0.497920  0.997384  -0.000000  1
  Fe  Fe19  1  0.493226  0.395325  0.000000  1
  Fe  Fe20  1  0.492443  0.190820  0.000002  1
  Fe  Fe21  1  0.661035  0.911376  0.499997  1
  Fe  Fe22  1  0.663194  0.696757  0.499998  1
  Fe  Fe23  1  0.834266  0.193698  0.499999  1
  Fe  Fe24  1  0.839755  0.415267  0.500000  1
  Fe  Fe25  1  0.005727  0.690898  0.000006  1
  Fe  Fe26  1  0.010296  0.893247  0.999998  1
  O  O27  1  0.981821  0.418999  0.999998  1
  O  O28  1  0.015996  0.585072  0.000006  1
  O  O29  1  0.060433  0.941184  0.500002  1
  O  O30  1  0.037235  0.161653  0.499994  1
  O  O31  1  0.136896  0.664594  0.500005  1
  O  O32  1  0.134783  0.754314  0.000001  1
  O  O33  1  0.149381  0.506542  0.499997  1
  O  O34  1  0.122475  0.290554  0.499998  1
  O  O35  1  0.202446  0.857246  0.999991  1
  O  O36  1  0.198250  0.084055  -0.000000  1
  O  O37  1  0.303449  0.584621  0.999997  1
  O  O38  1  0.304083  0.358240  -0.000000  1
  O  O39  1  0.375963  0.788271  0.499986  1
  O  O40  1  0.348739  0.002078  0.499998  1
  O  O41  1  0.369107  0.255823  0.000003  1
  O  O42  1  0.364811  0.163939  0.500002  1
  O  O43  1  0.461384  0.662285  0.499994  1
  O  O44  1  0.436187  0.442109  0.499996  1
  O  O45  1  0.482467  0.079509  0.000002  1
  O  O46  1  0.515045  0.914257  0.999998  1
  O  O47  1  0.562139  0.558367  0.500027  1
  O  O48  1  0.536914  0.338011  0.500007  1
  O  O49  1  0.638148  0.835899  0.499989  1
  O  O50  1  0.625640  0.747627  0.999988  1
  O  O51  1  0.651478  0.991536  0.500002  1
  O  O52  1  0.622702  0.210096  0.500003  1
  O  O53  1  0.693881  0.644485  0.000018  1
  O  O54  1  0.697298  0.415709  0.000002  1
  O  O55  1  0.802724  0.910590  0.999997  1
  O  O56  1  0.804565  0.142328  0.000000  1
  O  O57  1  0.876682  0.713964  0.500007  1
  O  O58  1  0.848819  0.496867  0.500000  1
  O  O59  1  0.869764  0.244718  0.999998  1
  O  O60  1  0.862642  0.335972  0.499998  1
  O  O61  1  0.969202  0.837339  0.499991  1
  O  O62  1  0.936588  0.057586  0.500006  1
