# generated using pymatgen
data_LiAl
_symmetry_space_group_name_H-M   'P 1'
_cell_length_a   4.46799144
_cell_length_b   4.46799144
_cell_length_c   8.60409916
_cell_angle_alpha   90.00000000
_cell_angle_beta   90.00000000
_cell_angle_gamma   119.99968642
_symmetry_Int_Tables_number   1
_chemical_formula_structural   LiAl
_chemical_formula_sum   'Li4 Al4'
_cell_volume   148.75174743
_cell_formula_units_Z   4
loop_
 _symmetry_equiv_pos_site_id
 _symmetry_equiv_pos_as_xyz
  1  'x, y, z'
loop_
 _atom_site_type_symbol
 _atom_site_label
 _atom_site_symmetry_multiplicity
 _atom_site_fract_x
 _atom_site_fract_y
 _atom_site_fract_z
 _atom_site_occupancy
  Li  Li1  1  0.666679  0.333321  0.583619  1
  Li  Li2  1  0.333321  0.666679  0.416381  1
  Li  Li3  1  0.333321  0.666679  0.083619  1
  Li  Li4  1  0.666679  0.333321  0.916381  1
  Al  Al5  1  0.999995  0.000005  0.750000  1
  Al  Al6  1  0.000005  0.999995  0.250000  1
  Al  Al7  1  0.666666  0.333334  0.250000  1
  Al  Al8  1  0.333334  0.666666  0.750000  1
