# generated using pymatgen
data_Li2FeO3
_symmetry_space_group_name_H-M   'P 1'
_cell_length_a   2.89542391
_cell_length_b   5.86586100
_cell_length_c   6.38868765
_cell_angle_alpha   103.88861241
_cell_angle_beta   103.08603898
_cell_angle_gamma   89.99838347
_symmetry_Int_Tables_number   1
_chemical_formula_structural   Li2FeO3
_chemical_formula_sum   'Li4 Fe2 O6'
_cell_volume   102.42934312
_cell_formula_units_Z   2
loop_
 _symmetry_equiv_pos_site_id
 _symmetry_equiv_pos_as_xyz
  1  'x, y, z'
loop_
 _atom_site_type_symbol
 _atom_site_label
 _atom_site_symmetry_multiplicity
 _atom_site_fract_x
 _atom_site_fract_y
 _atom_site_fract_z
 _atom_site_occupancy
  Li  Li1  1  0.673915  0.826255  0.347000  1
  Li  Li2  1  0.992833  0.506845  0.986513  1
  Li  Li3  1  0.333292  0.166774  0.666602  1
  Li  Li4  1  0.333401  0.666484  0.666785  1
  Fe  Fe5  1  0.672266  0.339649  0.344938  1
  Fe  Fe6  1  0.994492  0.993677  0.988578  1
  O  O7  1  0.507954  0.230384  0.015632  1
  O  O8  1  0.818882  0.406983  0.638338  1
  O  O9  1  0.847650  0.926104  0.694712  1
  O  O10  1  0.503831  0.781557  0.007283  1
  O  O11  1  0.158561  0.103230  0.317419  1
  O  O12  1  0.162888  0.552012  0.326159  1
