# generated using pymatgen
data_LiHg3
_symmetry_space_group_name_H-M   'P 1'
_cell_length_a   5.25112245
_cell_length_b   6.37172359
_cell_length_c   6.37172359
_cell_angle_alpha   119.63959741
_cell_angle_beta   90.00000000
_cell_angle_gamma   90.00000000
_symmetry_Int_Tables_number   1
_chemical_formula_structural   LiHg3
_chemical_formula_sum   'Li2 Hg6'
_cell_volume   185.29445053
_cell_formula_units_Z   2
loop_
 _symmetry_equiv_pos_site_id
 _symmetry_equiv_pos_as_xyz
  1  'x, y, z'
loop_
 _atom_site_type_symbol
 _atom_site_label
 _atom_site_symmetry_multiplicity
 _atom_site_fract_x
 _atom_site_fract_y
 _atom_site_fract_z
 _atom_site_occupancy
  Li  Li1  1  0.750000  0.666522  0.333478  1
  Li  Li2  1  0.250000  0.333478  0.666522  1
  Hg  Hg3  1  0.750000  0.170195  0.339630  1
  Hg  Hg4  1  0.750000  0.169914  0.830086  1
  Hg  Hg5  1  0.750000  0.660370  0.829805  1
  Hg  Hg6  1  0.250000  0.829805  0.660370  1
  Hg  Hg7  1  0.250000  0.830086  0.169914  1
  Hg  Hg8  1  0.250000  0.339630  0.170195  1
