# generated using pymatgen
data_Li5In4
_symmetry_space_group_name_H-M   'P 1'
_cell_length_a   4.77328681
_cell_length_b   4.77640203
_cell_length_c   8.97549745
_cell_angle_alpha   90.00000002
_cell_angle_beta   89.98934709
_cell_angle_gamma   120.02158637
_symmetry_Int_Tables_number   1
_chemical_formula_structural   Li5In4
_chemical_formula_sum   'Li5 In4'
_cell_volume   177.17932615
_cell_formula_units_Z   1
loop_
 _symmetry_equiv_pos_site_id
 _symmetry_equiv_pos_as_xyz
  1  'x, y, z'
loop_
 _atom_site_type_symbol
 _atom_site_label
 _atom_site_symmetry_multiplicity
 _atom_site_fract_x
 _atom_site_fract_y
 _atom_site_fract_z
 _atom_site_occupancy
  Li  Li1  1  0.333640  0.666820  0.617411  1
  Li  Li2  1  0.666360  0.333180  0.382589  1
  Li  Li3  1  -0.000000  -0.000000  0.500000  1
  Li  Li4  1  0.332624  0.666312  0.951670  1
  Li  Li5  1  0.667376  0.333688  0.048330  1
  In  In6  1  0.000456  0.000228  0.165006  1
  In  In7  1  0.999544  0.999772  0.834994  1
  In  In8  1  0.332085  0.666043  0.297134  1
  In  In9  1  0.667915  0.333957  0.702866  1
