# generated using pymatgen
data_Li3(FeO2)4
_symmetry_space_group_name_H-M   'P 1'
_cell_length_a   5.82526595
_cell_length_b   5.82868833
_cell_length_c   5.88230084
_cell_angle_alpha   61.04571745
_cell_angle_beta   61.06049607
_cell_angle_gamma   91.31444382
_symmetry_Int_Tables_number   1
_chemical_formula_structural   Li3(FeO2)4
_chemical_formula_sum   'Li3 Fe4 O8'
_cell_volume   144.05424263
_cell_formula_units_Z   1
loop_
 _symmetry_equiv_pos_site_id
 _symmetry_equiv_pos_as_xyz
  1  'x, y, z'
loop_
 _atom_site_type_symbol
 _atom_site_label
 _atom_site_symmetry_multiplicity
 _atom_site_fract_x
 _atom_site_fract_y
 _atom_site_fract_z
 _atom_site_occupancy
  Li  Li1  1  0.996447  0.496461  0.507152  1
  Li  Li2  1  0.497493  0.997416  0.005201  1
  Li  Li3  1  0.997351  0.497477  0.005089  1
  Fe  Fe4  1  0.496742  0.497245  0.005738  1
  Fe  Fe5  1  0.997281  0.996847  0.006071  1
  Fe  Fe6  1  0.497269  0.497428  0.505387  1
  Fe  Fe7  1  0.497377  0.997187  0.505358  1
  O  O8  1  0.255692  0.755698  0.988644  1
  O  O9  1  0.734233  0.736811  0.505413  1
  O  O10  1  0.267817  0.267795  0.964389  1
  O  O11  1  0.713828  0.267555  0.505230  1
  O  O12  1  0.281115  0.727156  0.505311  1
  O  O13  1  0.726858  0.726864  0.046241  1
  O  O14  1  0.260302  0.257680  0.505575  1
  O  O15  1  0.738858  0.238944  0.022184  1
