# generated using pymatgen
data_LiB
_symmetry_space_group_name_H-M   'P 1'
_cell_length_a   7.30397386
_cell_length_b   3.08439466
_cell_length_c   13.54308175
_cell_angle_alpha   90.00000000
_cell_angle_beta   90.00000000
_cell_angle_gamma   90.00000000
_symmetry_Int_Tables_number   1
_chemical_formula_structural   LiB
_chemical_formula_sum   'Li4 B4'
_cell_volume   305.10312283
_cell_formula_units_Z   4
loop_
 _symmetry_equiv_pos_site_id
 _symmetry_equiv_pos_as_xyz
  1  'x, y, z'
loop_
 _atom_site_type_symbol
 _atom_site_label
 _atom_site_symmetry_multiplicity
 _atom_site_fract_x
 _atom_site_fract_y
 _atom_site_fract_z
 _atom_site_occupancy
  Li  Li1  1  0.288752  0.750000  0.000000  1
  Li  Li2  1  0.711248  0.250000  0.000000  1
  Li  Li3  1  0.781532  0.750000  0.500000  1
  Li  Li4  1  0.218468  0.250000  0.500000  1
  B  B5  1  -0.000000  0.500000  -0.000000  1
  B  B6  1  0.000000  -0.000000  -0.000000  1
  B  B7  1  0.485370  0.750000  0.500000  1
  B  B8  1  0.514630  0.250000  0.500000  1
