# generated using pymatgen
data_LiO2
_symmetry_space_group_name_H-M   'P 1'
_cell_length_a   4.02361519
_cell_length_b   4.31667288
_cell_length_c   4.31667288
_cell_angle_alpha   87.23695786
_cell_angle_beta   119.28987939
_cell_angle_gamma   119.28987939
_symmetry_Int_Tables_number   1
_chemical_formula_structural   LiO2
_chemical_formula_sum   'Li2 O4'
_cell_volume   55.20005595
_cell_formula_units_Z   2
loop_
 _symmetry_equiv_pos_site_id
 _symmetry_equiv_pos_as_xyz
  1  'x, y, z'
loop_
 _atom_site_type_symbol
 _atom_site_label
 _atom_site_symmetry_multiplicity
 _atom_site_fract_x
 _atom_site_fract_y
 _atom_site_fract_z
 _atom_site_occupancy
  Li  Li1  1  0.500000  0.741251  0.258749  1
  Li  Li2  1  0.500000  0.258749  0.741251  1
  O  O3  1  -0.000000  0.794933  0.205067  1
  O  O4  1  0.000000  0.205067  0.794933  1
  O  O5  1  0.413407  0.212793  0.212793  1
  O  O6  1  0.586593  0.787207  0.787207  1
