# generated using pymatgen
data_Li2FeO3
_symmetry_space_group_name_H-M   'P 1'
_cell_length_a   5.02652295
_cell_length_b   4.97959161
_cell_length_c   8.55456940
_cell_angle_alpha   89.99978243
_cell_angle_beta   90.00022614
_cell_angle_gamma   90.01518302
_symmetry_Int_Tables_number   1
_chemical_formula_structural   Li2FeO3
_chemical_formula_sum   'Li8 Fe4 O12'
_cell_volume   214.12113445
_cell_formula_units_Z   4
loop_
 _symmetry_equiv_pos_site_id
 _symmetry_equiv_pos_as_xyz
  1  'x, y, z'
loop_
 _atom_site_type_symbol
 _atom_site_label
 _atom_site_symmetry_multiplicity
 _atom_site_fract_x
 _atom_site_fract_y
 _atom_site_fract_z
 _atom_site_occupancy
  Li  Li1  1  0.000003  0.500005  0.417814  1
  Li  Li2  1  0.500001  0.500002  0.754872  1
  Li  Li3  1  0.999997  0.500003  0.730889  1
  Li  Li4  1  0.500004  0.500003  0.068017  1
  Li  Li5  1  0.500003  0.000004  0.917856  1
  Li  Li6  1  0.999995  0.000004  0.568018  1
  Li  Li7  1  0.500002  0.000001  0.231011  1
  Li  Li8  1  0.000000  1.000000  0.254946  1
  Fe  Fe9  1  -0.000000  0.499998  0.083887  1
  Fe  Fe10  1  0.500002  0.500004  0.402081  1
  Fe  Fe11  1  0.499991  0.999993  0.583895  1
  Fe  Fe12  1  0.000001  0.000001  0.902054  1
  O  O13  1  0.750056  0.856298  0.742995  1
  O  O14  1  0.781597  0.823084  0.069137  1
  O  O15  1  0.718440  0.823038  0.416734  1
  O  O16  1  0.218445  0.677034  0.916747  1
  O  O17  1  0.281500  0.676812  0.569122  1
  O  O18  1  0.250088  0.643698  0.242980  1
  O  O19  1  0.749919  0.356304  0.242981  1
  O  O20  1  0.718498  0.323187  0.569122  1
  O  O21  1  0.781553  0.322965  0.916746  1
  O  O22  1  0.281562  0.176959  0.416733  1
  O  O23  1  0.218410  0.176919  0.069140  1
  O  O24  1  0.249935  0.143705  0.742999  1
