# generated using pymatgen
data_LiFe5O8
_symmetry_space_group_name_H-M   'P 1'
_cell_length_a   5.81511035
_cell_length_b   5.82345039
_cell_length_c   5.80932882
_cell_angle_alpha   60.02015864
_cell_angle_beta   60.00419488
_cell_angle_gamma   60.25028192
_symmetry_Int_Tables_number   1
_chemical_formula_structural   LiFe5O8
_chemical_formula_sum   'Li1 Fe5 O8'
_cell_volume   139.39405097
_cell_formula_units_Z   1
loop_
 _symmetry_equiv_pos_site_id
 _symmetry_equiv_pos_as_xyz
  1  'x, y, z'
loop_
 _atom_site_type_symbol
 _atom_site_label
 _atom_site_symmetry_multiplicity
 _atom_site_fract_x
 _atom_site_fract_y
 _atom_site_fract_z
 _atom_site_occupancy
  Li  Li1  1  0.999759  0.999180  0.000515  1
  Fe  Fe2  1  0.250521  0.251182  0.248955  1
  Fe  Fe3  1  0.626936  0.117660  0.627784  1
  Fe  Fe4  1  0.627726  0.627518  0.117129  1
  Fe  Fe5  1  0.117524  0.626985  0.627696  1
  Fe  Fe6  1  0.627963  0.627635  0.627168  1
  O  O7  1  0.384416  0.384321  0.385825  1
  O  O8  1  0.845813  0.384082  0.385155  1
  O  O9  1  0.384717  0.845768  0.384818  1
  O  O10  1  0.384868  0.384801  0.845167  1
  O  O11  1  0.862685  0.412856  0.862261  1
  O  O12  1  0.861318  0.861904  0.416632  1
  O  O13  1  0.862091  0.862571  0.859537  1
  O  O14  1  0.413662  0.863537  0.861357  1
