# generated using pymatgen
data_BaLi4O3
_symmetry_space_group_name_H-M   'P 1'
_cell_length_a   5.79865720
_cell_length_b   5.43488903
_cell_length_c   13.69117184
_cell_angle_alpha   89.99333302
_cell_angle_beta   89.98869746
_cell_angle_gamma   57.77097606
_symmetry_Int_Tables_number   1
_chemical_formula_structural   BaLi4O3
_chemical_formula_sum   'Ba4 Li16 O12'
_cell_volume   364.99727736
_cell_formula_units_Z   4
loop_
 _symmetry_equiv_pos_site_id
 _symmetry_equiv_pos_as_xyz
  1  'x, y, z'
loop_
 _atom_site_type_symbol
 _atom_site_label
 _atom_site_symmetry_multiplicity
 _atom_site_fract_x
 _atom_site_fract_y
 _atom_site_fract_z
 _atom_site_occupancy
  Ba  Ba1  1  0.976191  0.042027  0.342248  1
  Ba  Ba2  1  0.518523  0.957955  0.842249  1
  Ba  Ba3  1  0.020952  0.953030  0.655565  1
  Ba  Ba4  1  0.473635  0.046939  0.155561  1
  Li  Li5  1  0.166085  0.667183  0.176789  1
  Li  Li6  1  0.333551  0.332810  0.676784  1
  Li  Li7  1  0.798190  0.402368  0.158244  1
  Li  Li8  1  0.700666  0.597620  0.658247  1
  Li  Li9  1  0.458246  0.724514  0.492001  1
  Li  Li10  1  0.682719  0.275515  0.992104  1
  Li  Li11  1  0.302251  0.745185  0.005432  1
  Li  Li12  1  0.547402  0.254856  0.505512  1
  Li  Li13  1  0.194801  0.255573  0.505436  1
  Li  Li14  1  0.950415  0.744433  0.005519  1
  Li  Li15  1  0.039037  0.274357  0.992414  1
  Li  Li16  1  0.813358  0.725669  0.492505  1
  Li  Li17  1  0.666377  0.666754  0.320863  1
  Li  Li18  1  0.833429  0.333255  0.820862  1
  Li  Li19  1  0.299109  0.400083  0.342268  1
  Li  Li20  1  0.199334  0.599910  0.842267  1
  O  O21  1  0.992864  0.514413  0.249490  1
  O  O22  1  0.007584  0.485597  0.749434  1
  O  O23  1  0.310337  0.376386  0.989841  1
  O  O24  1  0.186682  0.623667  0.489843  1
  O  O25  1  0.497488  0.005589  0.397516  1
  O  O26  1  0.003388  0.994381  0.897519  1
  O  O27  1  0.491552  0.514494  0.249629  1
  O  O28  1  0.506412  0.485433  0.749691  1
  O  O29  1  0.817471  0.361499  0.508254  1
  O  O30  1  0.679004  0.638509  0.008263  1
  O  O31  1  0.994310  0.013185  0.102299  1
  O  O32  1  0.507759  0.986814  0.602304  1
