# generated using pymatgen
data_LiMg
_symmetry_space_group_name_H-M   'P 1'
_cell_length_a   11.39415002
_cell_length_b   3.08818052
_cell_length_c   5.35520703
_cell_angle_alpha   90.00000000
_cell_angle_beta   117.18156199
_cell_angle_gamma   90.00000000
_symmetry_Int_Tables_number   1
_chemical_formula_structural   LiMg
_chemical_formula_sum   'Li4 Mg4'
_cell_volume   167.62461554
_cell_formula_units_Z   4
loop_
 _symmetry_equiv_pos_site_id
 _symmetry_equiv_pos_as_xyz
  1  'x, y, z'
loop_
 _atom_site_type_symbol
 _atom_site_label
 _atom_site_symmetry_multiplicity
 _atom_site_fract_x
 _atom_site_fract_y
 _atom_site_fract_z
 _atom_site_occupancy
  Li  Li1  1  0.874819  0.500000  0.708405  1
  Li  Li2  1  0.625181  -0.000000  0.291595  1
  Li  Li3  1  0.374819  -0.000000  0.708405  1
  Li  Li4  1  0.125181  0.500000  0.291595  1
  Mg  Mg5  1  0.623677  0.500000  0.793483  1
  Mg  Mg6  1  0.876323  0.000000  0.206517  1
  Mg  Mg7  1  0.123677  -0.000000  0.793483  1
  Mg  Mg8  1  0.376323  0.500000  0.206517  1
