# generated using pymatgen
data_Li2Mg
_symmetry_space_group_name_H-M   'P 1'
_cell_length_a   3.16427351
_cell_length_b   3.16427439
_cell_length_c   14.70977119
_cell_angle_alpha   90.00000000
_cell_angle_beta   90.00000000
_cell_angle_gamma   120.00000295
_symmetry_Int_Tables_number   1
_chemical_formula_structural   Li2Mg
_chemical_formula_sum   'Li4 Mg2'
_cell_volume   127.55124087
_cell_formula_units_Z   2
loop_
 _symmetry_equiv_pos_site_id
 _symmetry_equiv_pos_as_xyz
  1  'x, y, z'
loop_
 _atom_site_type_symbol
 _atom_site_label
 _atom_site_symmetry_multiplicity
 _atom_site_fract_x
 _atom_site_fract_y
 _atom_site_fract_z
 _atom_site_occupancy
  Li  Li1  1  0.333333  0.666667  0.916413  1
  Li  Li2  1  0.666667  0.333333  0.753830  1
  Li  Li3  1  0.333333  0.666667  0.246170  1
  Li  Li4  1  0.666667  0.333333  0.083587  1
  Mg  Mg5  1  0.333333  0.666667  0.587469  1
  Mg  Mg6  1  0.666667  0.333333  0.412531  1
