# generated using pymatgen
data_LiMg2
_symmetry_space_group_name_H-M   'P 1'
_cell_length_a   9.25599411
_cell_length_b   5.51541230
_cell_length_c   5.90248056
_cell_angle_alpha   90.00000000
_cell_angle_beta   119.38660516
_cell_angle_gamma   90.00000000
_symmetry_Int_Tables_number   1
_chemical_formula_structural   LiMg2
_chemical_formula_sum   'Li4 Mg8'
_cell_volume   262.55335026
_cell_formula_units_Z   4
loop_
 _symmetry_equiv_pos_site_id
 _symmetry_equiv_pos_as_xyz
  1  'x, y, z'
loop_
 _atom_site_type_symbol
 _atom_site_label
 _atom_site_symmetry_multiplicity
 _atom_site_fract_x
 _atom_site_fract_y
 _atom_site_fract_z
 _atom_site_occupancy
  Li  Li1  1  0.500000  0.414929  0.250000  1
  Li  Li2  1  0.000000  0.085071  0.750000  1
  Li  Li3  1  0.000000  0.914929  0.250000  1
  Li  Li4  1  0.500000  0.585071  0.750000  1
  Mg  Mg5  1  0.167976  0.585759  0.749901  1
  Mg  Mg6  1  0.332024  0.085759  0.750099  1
  Mg  Mg7  1  0.167976  0.414241  0.249901  1
  Mg  Mg8  1  0.332024  0.914241  0.250099  1
  Mg  Mg9  1  0.667976  0.085759  0.749901  1
  Mg  Mg10  1  0.832024  0.585759  0.750099  1
  Mg  Mg11  1  0.667976  0.914241  0.249901  1
  Mg  Mg12  1  0.832024  0.414241  0.250099  1
