# generated using pymatgen
data_LiFeO3
_symmetry_space_group_name_H-M   'P 1'
_cell_length_a   8.69735639
_cell_length_b   8.69735578
_cell_length_c   9.89540583
_cell_angle_alpha   97.64129777
_cell_angle_beta   97.64223026
_cell_angle_gamma   58.94605189
_symmetry_Int_Tables_number   1
_chemical_formula_structural   LiFeO3
_chemical_formula_sum   'Li12 Fe12 O36'
_cell_volume   633.72575602
_cell_formula_units_Z   12
loop_
 _symmetry_equiv_pos_site_id
 _symmetry_equiv_pos_as_xyz
  1  'x, y, z'
loop_
 _atom_site_type_symbol
 _atom_site_label
 _atom_site_symmetry_multiplicity
 _atom_site_fract_x
 _atom_site_fract_y
 _atom_site_fract_z
 _atom_site_occupancy
  Li  Li1  1  0.994784  0.175486  0.505429  1
  Li  Li2  1  0.868722  0.368687  0.957689  1
  Li  Li3  1  0.721992  0.222029  0.073545  1
  Li  Li4  1  0.675476  0.494772  0.505413  1
  Li  Li5  1  0.648512  0.148496  0.520861  1
  Li  Li6  1  0.536345  0.036305  0.959047  1
  Li  Li7  1  0.436489  0.936506  0.439480  1
  Li  Li8  1  0.387358  0.887395  0.069328  1
  Li  Li9  1  0.201238  0.701206  0.960188  1
  Li  Li10  1  0.227809  0.727797  0.567433  1
  Li  Li11  1  0.053968  0.554009  0.070812  1
  Li  Li12  1  0.013514  0.513535  0.486039  1
  Fe  Fe13  1  0.918601  0.080292  0.751831  1
  Fe  Fe14  1  0.911484  0.752050  0.748275  1
  Fe  Fe15  1  0.743730  0.581567  0.250157  1
  Fe  Fe16  1  0.750441  0.910184  0.253243  1
  Fe  Fe17  1  0.580314  0.418578  0.751830  1
  Fe  Fe18  1  0.585204  0.748514  0.750157  1
  Fe  Fe19  1  0.410158  0.250466  0.253243  1
  Fe  Fe20  1  0.413476  0.577764  0.252489  1
  Fe  Fe21  1  0.248539  0.085180  0.750163  1
  Fe  Fe22  1  0.252071  0.411460  0.748278  1
  Fe  Fe23  1  0.081540  0.243757  0.250160  1
  Fe  Fe24  1  0.077737  0.913503  0.252487  1
  O  O25  1  0.982268  0.112981  0.145523  1
  O  O26  1  0.940075  0.440102  0.138975  1
  O  O27  1  0.947296  0.815138  0.145332  1
  O  O28  1  0.881797  0.010125  0.359579  1
  O  O29  1  0.888524  0.388545  0.369092  1
  O  O30  1  0.841943  0.712199  0.356330  1
  O  O31  1  0.819535  0.950973  0.644385  1
  O  O32  1  0.774813  0.274794  0.633245  1
  O  O33  1  0.781377  0.650444  0.640453  1
  O  O34  1  0.648148  0.780982  0.145411  1
  O  O35  1  0.729574  0.229548  0.868868  1
  O  O36  1  0.719821  0.840840  0.856069  1
  O  O37  1  0.607862  0.107892  0.141680  1
  O  O38  1  0.612948  0.482299  0.145524  1
  O  O39  1  0.674003  0.553618  0.856300  1
  O  O40  1  0.551653  0.051677  0.362984  1
  O  O41  1  0.549018  0.674919  0.360382  1
  O  O42  1  0.510102  0.381821  0.359580  1
  O  O43  1  0.486624  0.614654  0.641217  1
  O  O44  1  0.450996  0.319509  0.644389  1
  O  O45  1  0.443931  0.943914  0.641027  1
  O  O46  1  0.315106  0.447329  0.145333  1
  O  O47  1  0.385114  0.508040  0.855600  1
  O  O48  1  0.395180  0.895153  0.867492  1
  O  O49  1  0.280949  0.148180  0.145414  1
  O  O50  1  0.275024  0.775053  0.140710  1
  O  O51  1  0.340867  0.219795  0.856075  1
  O  O52  1  0.212177  0.341964  0.356332  1
  O  O53  1  0.219400  0.719422  0.362128  1
  O  O54  1  0.174899  0.049039  0.360382  1
  O  O55  1  0.150462  0.281361  0.640459  1
  O  O56  1  0.111698  0.611675  0.639521  1
  O  O57  1  0.114675  0.986607  0.641218  1
  O  O58  1  0.053651  0.173967  0.856305  1
  O  O59  1  0.061638  0.561616  0.865871  1
  O  O60  1  0.008066  0.885083  0.855596  1
