# generated using pymatgen
data_Li5Fe11O16
_symmetry_space_group_name_H-M   'P 1'
_cell_length_a   6.03155069
_cell_length_b   6.01192950
_cell_length_c   10.54149389
_cell_angle_alpha   90.47392823
_cell_angle_beta   72.30745464
_cell_angle_gamma   119.62241747
_symmetry_Int_Tables_number   1
_chemical_formula_structural   Li5Fe11O16
_chemical_formula_sum   'Li5 Fe11 O16'
_cell_volume   311.88732464
_cell_formula_units_Z   1
loop_
 _symmetry_equiv_pos_site_id
 _symmetry_equiv_pos_as_xyz
  1  'x, y, z'
loop_
 _atom_site_type_symbol
 _atom_site_label
 _atom_site_symmetry_multiplicity
 _atom_site_fract_x
 _atom_site_fract_y
 _atom_site_fract_z
 _atom_site_occupancy
  Li  Li1  1  0.124663  0.316749  0.069343  1
  Li  Li2  1  0.618299  0.808763  0.067512  1
  Li  Li3  1  0.628304  0.315928  0.559102  1
  Li  Li4  1  0.124693  0.809733  0.068966  1
  Li  Li5  1  0.123445  0.810236  0.557984  1
  Fe  Fe6  1  0.621890  0.310785  0.064958  1
  Fe  Fe7  1  0.622361  0.064608  0.311362  1
  Fe  Fe8  1  0.620831  0.057622  0.815109  1
  Fe  Fe9  1  0.632483  0.570981  0.308625  1
  Fe  Fe10  1  0.123738  0.063759  0.309790  1
  Fe  Fe11  1  0.626917  0.816226  0.560190  1
  Fe  Fe12  1  0.122564  0.058442  0.817972  1
  Fe  Fe13  1  0.129205  0.313383  0.557906  1
  Fe  Fe14  1  0.125273  0.566350  0.310418  1
  Fe  Fe15  1  0.625917  0.561401  0.812985  1
  Fe  Fe16  1  0.125265  0.563358  0.817105  1
  O  O17  1  0.863797  0.434328  0.195887  1
  O  O18  1  0.862370  0.184635  0.436251  1
  O  O19  1  0.873784  0.176284  0.927824  1
  O  O20  1  0.872857  0.693010  0.427952  1
  O  O21  1  0.853909  0.932295  0.197854  1
  O  O22  1  0.869912  0.426773  0.695388  1
  O  O23  1  0.376602  0.438195  0.196677  1
  O  O24  1  0.384882  0.202226  0.433115  1
  O  O25  1  0.873144  0.933439  0.697757  1
  O  O26  1  0.382226  0.432178  0.693373  1
  O  O27  1  0.388561  0.949059  0.191254  1
  O  O28  1  0.382268  0.192001  0.927023  1
  O  O29  1  0.865332  0.690067  0.931369  1
  O  O30  1  0.379718  0.695632  0.431672  1
  O  O31  1  0.375192  0.947094  0.699088  1
  O  O32  1  0.391592  0.693362  0.924904  1
