# generated using pymatgen
data_LiFe5O8
_symmetry_space_group_name_H-M   'P 1'
_cell_length_a   8.48796082
_cell_length_b   8.48796082
_cell_length_c   8.48796082
_cell_angle_alpha   90.00000000
_cell_angle_beta   90.00000000
_cell_angle_gamma   90.00000000
_symmetry_Int_Tables_number   1
_chemical_formula_structural   LiFe5O8
_chemical_formula_sum   'Li4 Fe20 O32'
_cell_volume   611.51920201
_cell_formula_units_Z   4
loop_
 _symmetry_equiv_pos_site_id
 _symmetry_equiv_pos_as_xyz
  1  'x, y, z'
loop_
 _atom_site_type_symbol
 _atom_site_label
 _atom_site_symmetry_multiplicity
 _atom_site_fract_x
 _atom_site_fract_y
 _atom_site_fract_z
 _atom_site_occupancy
  Li  Li1  1  0.624999  0.624999  0.624999  1
  Li  Li2  1  0.375000  0.125000  0.875000  1
  Li  Li3  1  0.875000  0.375000  0.125000  1
  Li  Li4  1  0.125000  0.875000  0.375000  1
  O  O5  1  0.113436  0.613436  0.886564  1
  O  O6  1  0.132022  0.866139  0.123162  1
  O  O7  1  0.632021  0.633860  0.876838  1
  O  O8  1  0.866139  0.123162  0.132022  1
  O  O9  1  0.133861  0.623162  0.367978  1
  O  O10  1  0.123162  0.132022  0.866139  1
  O  O11  1  0.376839  0.867978  0.366139  1
  O  O12  1  0.382022  0.873161  0.883861  1
  O  O13  1  0.882022  0.626838  0.116140  1
  O  O14  1  0.617979  0.373162  0.616140  1
  O  O15  1  0.626838  0.116140  0.882022  1
  O  O16  1  0.616140  0.617979  0.373162  1
  O  O17  1  0.116140  0.882022  0.626838  1
  O  O18  1  0.873161  0.883861  0.382022  1
  O  O19  1  0.883861  0.382022  0.873161  1
  O  O20  1  0.373162  0.616140  0.617979  1
  O  O21  1  0.126838  0.383861  0.117979  1
  O  O22  1  0.383861  0.117979  0.126838  1
  O  O23  1  0.876838  0.632021  0.633860  1
  O  O24  1  0.623162  0.367978  0.133861  1
  O  O25  1  0.386565  0.386565  0.386565  1
  O  O26  1  0.136564  0.363436  0.636564  1
  O  O27  1  0.636564  0.136564  0.363436  1
  O  O28  1  0.363436  0.636564  0.136564  1
  O  O29  1  0.366139  0.376839  0.867978  1
  O  O30  1  0.886564  0.113436  0.613436  1
  O  O31  1  0.633860  0.876838  0.632021  1
  O  O32  1  0.863435  0.863435  0.863435  1
  O  O33  1  0.117979  0.126838  0.383861  1
  O  O34  1  0.867978  0.366139  0.376839  1
  O  O35  1  0.367978  0.133861  0.623162  1
  O  O36  1  0.613436  0.886564  0.113436  1
  Fe  Fe37  1  0.125000  0.367181  0.882819  1
  Fe  Fe38  1  0.252884  0.252884  0.252884  1
  Fe  Fe39  1  0.002885  0.497116  0.502885  1
  Fe  Fe40  1  0.497116  0.502885  0.002885  1
  Fe  Fe41  1  0.502885  0.002885  0.497116  1
  Fe  Fe42  1  0.752884  0.247115  0.747115  1
  Fe  Fe43  1  0.247115  0.747115  0.752884  1
  Fe  Fe44  1  0.747115  0.752884  0.247115  1
  Fe  Fe45  1  0.997115  0.997115  0.997115  1
  Fe  Fe46  1  0.624999  0.132818  0.117181  1
  Fe  Fe47  1  0.617181  0.875000  0.867181  1
  Fe  Fe48  1  0.632819  0.382819  0.375000  1
  Fe  Fe49  1  0.367181  0.882819  0.125000  1
  Fe  Fe50  1  0.882819  0.125000  0.367181  1
  Fe  Fe51  1  0.117181  0.624999  0.132818  1
  Fe  Fe52  1  0.382819  0.375000  0.632819  1
  Fe  Fe53  1  0.867181  0.617181  0.875000  1
  Fe  Fe54  1  0.132818  0.117181  0.624999  1
  Fe  Fe55  1  0.375000  0.632819  0.382819  1
  Fe  Fe56  1  0.875000  0.867181  0.617181  1
