# generated using pymatgen
data_LiFeO2
_symmetry_space_group_name_H-M   'P 1'
_cell_length_a   5.14967250
_cell_length_b   5.17913328
_cell_length_c   7.97023912
_cell_angle_alpha   109.06754616
_cell_angle_beta   101.63192752
_cell_angle_gamma   100.16419488
_symmetry_Int_Tables_number   1
_chemical_formula_structural   LiFeO2
_chemical_formula_sum   'Li5 Fe5 O10'
_cell_volume   189.92152185
_cell_formula_units_Z   5
loop_
 _symmetry_equiv_pos_site_id
 _symmetry_equiv_pos_as_xyz
  1  'x, y, z'
loop_
 _atom_site_type_symbol
 _atom_site_label
 _atom_site_symmetry_multiplicity
 _atom_site_fract_x
 _atom_site_fract_y
 _atom_site_fract_z
 _atom_site_occupancy
  Li  Li1  1  0.216745  0.915067  0.413732  1
  Li  Li2  1  0.389445  0.289512  0.776995  1
  Li  Li3  1  0.500000  0.500000  0.500000  1
  Li  Li4  1  0.610555  0.710488  0.223005  1
  Li  Li5  1  0.783255  0.084933  0.586268  1
  Fe  Fe6  1  0.099277  0.694478  0.685382  1
  Fe  Fe7  1  0.000000  0.500000  0.000000  1
  Fe  Fe8  1  0.689446  0.891472  0.889211  1
  Fe  Fe9  1  0.310554  0.108528  0.110789  1
  Fe  Fe10  1  0.900723  0.305522  0.314618  1
  O  O11  1  0.047398  0.101606  0.861733  1
  O  O12  1  0.336555  0.711469  0.944275  1
  O  O13  1  0.136298  0.311567  0.544392  1
  O  O14  1  0.228953  0.480319  0.231165  1
  O  O15  1  0.451830  0.898386  0.665242  1
  O  O16  1  0.548170  0.101614  0.334758  1
  O  O17  1  0.771047  0.519681  0.768835  1
  O  O18  1  0.863702  0.688433  0.455608  1
  O  O19  1  0.663445  0.288531  0.055725  1
  O  O20  1  0.952602  0.898394  0.138267  1
