# generated using pymatgen
data_LiMg
_symmetry_space_group_name_H-M   'P 1'
_cell_length_a   3.16457017
_cell_length_b   3.16456950
_cell_length_c   15.02943039
_cell_angle_alpha   90.00000000
_cell_angle_beta   90.00000000
_cell_angle_gamma   120.00000713
_symmetry_Int_Tables_number   1
_chemical_formula_structural   LiMg
_chemical_formula_sum   'Li3 Mg3'
_cell_volume   130.34743501
_cell_formula_units_Z   3
loop_
 _symmetry_equiv_pos_site_id
 _symmetry_equiv_pos_as_xyz
  1  'x, y, z'
loop_
 _atom_site_type_symbol
 _atom_site_label
 _atom_site_symmetry_multiplicity
 _atom_site_fract_x
 _atom_site_fract_y
 _atom_site_fract_z
 _atom_site_occupancy
  Li  Li1  1  0.333333  0.666667  0.666243  1
  Li  Li2  1  -0.000000  0.000000  0.500000  1
  Li  Li3  1  0.333333  0.666667  0.333757  1
  Mg  Mg4  1  0.333333  0.666667  -0.000000  1
  Mg  Mg5  1  -0.000000  0.000000  0.831274  1
  Mg  Mg6  1  -0.000000  0.000000  0.168726  1
