# generated using pymatgen
data_Li8Fe2O9
_symmetry_space_group_name_H-M   'P 1'
_cell_length_a   14.82838213
_cell_length_b   8.66388917
_cell_length_c   5.74139298
_cell_angle_alpha   70.32388330
_cell_angle_beta   79.13815452
_cell_angle_gamma   85.70353251
_symmetry_Int_Tables_number   1
_chemical_formula_structural   Li8Fe2O9
_chemical_formula_sum   'Li32 Fe8 O36'
_cell_volume   682.04159909
_cell_formula_units_Z   4
loop_
 _symmetry_equiv_pos_site_id
 _symmetry_equiv_pos_as_xyz
  1  'x, y, z'
loop_
 _atom_site_type_symbol
 _atom_site_label
 _atom_site_symmetry_multiplicity
 _atom_site_fract_x
 _atom_site_fract_y
 _atom_site_fract_z
 _atom_site_occupancy
  Li  Li1  1  0.036557  0.122054  0.771803  1
  Li  Li2  1  0.049445  0.624615  0.544822  1
  Li  Li3  1  0.046792  0.627416  0.041605  1
  Li  Li4  1  0.041307  0.125491  0.313507  1
  Li  Li5  1  0.151737  0.407409  0.851131  1
  Li  Li6  1  0.151680  0.851201  0.126398  1
  Li  Li7  1  0.239940  0.627967  0.967437  1
  Li  Li8  1  0.241359  0.627270  0.426264  1
  Li  Li9  1  0.259443  0.121243  0.667941  1
  Li  Li10  1  0.259633  0.120662  0.209317  1
  Li  Li11  1  0.344850  0.342314  0.782268  1
  Li  Li12  1  0.350984  0.897748  0.504509  1
  Li  Li13  1  0.457630  0.628556  0.856982  1
  Li  Li14  1  0.451782  0.124921  0.593075  1
  Li  Li15  1  0.465341  0.623840  0.309070  1
  Li  Li16  1  0.548357  0.878018  0.912131  1
  Li  Li17  1  0.451643  0.121982  0.087869  1
  Li  Li18  1  0.534659  0.376160  0.690930  1
  Li  Li19  1  0.548218  0.875079  0.406925  1
  Li  Li20  1  0.542370  0.371444  0.143018  1
  Li  Li21  1  0.649016  0.102252  0.495491  1
  Li  Li22  1  0.655150  0.657686  0.217732  1
  Li  Li23  1  0.740367  0.879338  0.790683  1
  Li  Li24  1  0.740557  0.878757  0.332059  1
  Li  Li25  1  0.758641  0.372730  0.573736  1
  Li  Li26  1  0.760060  0.372033  0.032563  1
  Li  Li27  1  0.848320  0.148799  0.873602  1
  Li  Li28  1  0.848263  0.592591  0.148869  1
  Li  Li29  1  0.958693  0.874509  0.686493  1
  Li  Li30  1  0.953208  0.372584  0.958396  1
  Li  Li31  1  0.950555  0.375385  0.455178  1
  Li  Li32  1  0.963443  0.877946  0.228197  1
  Fe  Fe33  1  0.151518  0.877526  0.615279  1
  Fe  Fe34  1  0.145826  0.371031  0.371989  1
  Fe  Fe35  1  0.350757  0.871447  0.020242  1
  Fe  Fe36  1  0.352799  0.378040  0.263184  1
  Fe  Fe37  1  0.647201  0.621960  0.736816  1
  Fe  Fe38  1  0.649243  0.128553  0.979758  1
  Fe  Fe39  1  0.854174  0.628969  0.628011  1
  Fe  Fe40  1  0.848482  0.122474  0.384721  1
  O  O41  1  0.059265  0.882761  0.892489  1
  O  O42  1  0.066033  0.883777  0.411800  1
  O  O43  1  0.063548  0.358786  0.659235  1
  O  O44  1  0.061803  0.366438  0.175296  1
  O  O45  1  0.155422  0.650162  0.728024  1
  O  O46  1  0.142082  0.596481  0.261981  1
  O  O47  1  0.153790  0.121322  0.488977  1
  O  O48  1  0.249272  0.875457  0.817070  1
  O  O49  1  0.252015  0.873809  0.318423  1
  O  O50  1  0.250990  0.374049  0.544433  1
  O  O51  1  0.248683  0.374718  0.092507  1
  O  O52  1  0.345011  0.098578  0.908495  1
  O  O53  1  0.346377  0.628602  0.141846  1
  O  O54  1  0.358091  0.152412  0.374061  1
  O  O55  1  0.437706  0.869405  0.739999  1
  O  O56  1  0.432576  0.389504  0.971578  1
  O  O57  1  0.440031  0.863350  0.215009  1
  O  O58  1  0.440161  0.385055  0.452436  1
  O  O59  1  0.559839  0.614945  0.547564  1
  O  O60  1  0.559969  0.136650  0.784991  1
  O  O61  1  0.567424  0.610496  0.028422  1
  O  O62  1  0.562294  0.130595  0.260001  1
  O  O63  1  0.641909  0.847588  0.625939  1
  O  O64  1  0.653623  0.371398  0.858153  1
  O  O65  1  0.654989  0.901422  0.091505  1
  O  O66  1  0.751317  0.625282  0.907493  1
  O  O67  1  0.749010  0.625951  0.455567  1
  O  O68  1  0.747985  0.126191  0.681577  1
  O  O69  1  0.750728  0.124543  0.182930  1
  O  O70  1  0.846210  0.878678  0.511023  1
  O  O71  1  0.857918  0.403519  0.738019  1
  O  O72  1  0.844578  0.349838  0.271976  1
  O  O73  1  0.938197  0.633562  0.824704  1
  O  O74  1  0.936452  0.641214  0.340765  1
  O  O75  1  0.933967  0.116223  0.588200  1
  O  O76  1  0.940735  0.117239  0.107511  1
