# generated using pymatgen
data_Li4Fe2O5
_symmetry_space_group_name_H-M   'P 1'
_cell_length_a   5.25706029
_cell_length_b   8.53456322
_cell_length_c   11.69543711
_cell_angle_alpha   65.04829098
_cell_angle_beta   90.00000000
_cell_angle_gamma   90.00000000
_symmetry_Int_Tables_number   1
_chemical_formula_structural   Li4Fe2O5
_chemical_formula_sum   'Li16 Fe8 O20'
_cell_volume   475.75890539
_cell_formula_units_Z   4
loop_
 _symmetry_equiv_pos_site_id
 _symmetry_equiv_pos_as_xyz
  1  'x, y, z'
loop_
 _atom_site_type_symbol
 _atom_site_label
 _atom_site_symmetry_multiplicity
 _atom_site_fract_x
 _atom_site_fract_y
 _atom_site_fract_z
 _atom_site_occupancy
  Li  Li1  1  0.122594  0.124885  0.996822  1
  Li  Li2  1  0.324239  0.912049  0.587775  1
  Li  Li3  1  0.477000  0.106450  0.884908  1
  Li  Li4  1  0.336551  0.211283  0.674753  1
  Li  Li5  1  0.836551  0.288717  0.825247  1
  Li  Li6  1  0.622594  0.375115  0.503178  1
  Li  Li7  1  0.977000  0.393550  0.615092  1
  Li  Li8  1  0.175769  0.412064  0.087775  1
  Li  Li9  1  0.824239  0.587951  0.912225  1
  Li  Li10  1  0.023023  0.606443  0.384915  1
  Li  Li11  1  0.377427  0.624877  0.496824  1
  Li  Li12  1  0.163457  0.711287  0.174756  1
  Li  Li13  1  0.663457  0.788713  0.325244  1
  Li  Li14  1  0.523023  0.893557  0.115085  1
  Li  Li15  1  0.675769  0.087936  0.412225  1
  Li  Li16  1  0.877427  0.875123  0.003176  1
  Fe  Fe17  1  0.669247  0.190449  0.117650  1
  Fe  Fe18  1  0.169247  0.309551  0.382350  1
  Fe  Fe19  1  0.830771  0.690442  0.617648  1
  Fe  Fe20  1  0.330771  0.809558  0.882352  1
  Fe  Fe21  1  0.829795  0.994558  0.712096  1
  Fe  Fe22  1  0.670191  0.494552  0.212104  1
  Fe  Fe23  1  0.329795  0.505442  0.787904  1
  Fe  Fe24  1  0.170191  0.005448  0.287896  1
  O  O25  1  0.301522  0.169673  0.126697  1
  O  O26  1  0.198126  0.977040  0.723336  1
  O  O27  1  0.286367  0.084544  0.411431  1
  O  O28  1  0.786367  0.415456  0.088569  1
  O  O29  1  0.711359  0.213829  0.687455  1
  O  O30  1  0.749124  0.105863  0.995826  1
  O  O31  1  0.801522  0.330327  0.373303  1
  O  O32  1  0.249124  0.394137  0.504174  1
  O  O33  1  0.211359  0.286171  0.812545  1
  O  O34  1  0.301866  0.477041  0.223341  1
  O  O35  1  0.698126  0.522960  0.776664  1
  O  O36  1  0.788642  0.713822  0.187455  1
  O  O37  1  0.750890  0.605857  0.495826  1
  O  O38  1  0.198485  0.669661  0.626698  1
  O  O39  1  0.250890  0.894143  0.004174  1
  O  O40  1  0.288642  0.786178  0.312544  1
  O  O41  1  0.213634  0.584558  0.911429  1
  O  O42  1  0.713634  0.915442  0.588571  1
  O  O43  1  0.801866  0.022959  0.276659  1
  O  O44  1  0.698485  0.830339  0.873302  1
