# generated using pymatgen
data_LiMg2
_symmetry_space_group_name_H-M   'P 1'
_cell_length_a   3.17134758
_cell_length_b   3.17134848
_cell_length_c   15.02254441
_cell_angle_alpha   90.00000000
_cell_angle_beta   90.00000000
_cell_angle_gamma   120.00000306
_symmetry_Int_Tables_number   1
_chemical_formula_structural   LiMg2
_chemical_formula_sum   'Li2 Mg4'
_cell_volume   130.84644398
_cell_formula_units_Z   2
loop_
 _symmetry_equiv_pos_site_id
 _symmetry_equiv_pos_as_xyz
  1  'x, y, z'
loop_
 _atom_site_type_symbol
 _atom_site_label
 _atom_site_symmetry_multiplicity
 _atom_site_fract_x
 _atom_site_fract_y
 _atom_site_fract_z
 _atom_site_occupancy
  Li  Li1  1  0.666667  0.333333  0.667319  1
  Li  Li2  1  0.666667  0.333333  0.332681  1
  Mg  Mg3  1  0.666667  0.333333  0.000000  1
  Mg  Mg4  1  -0.000000  0.000000  0.830761  1
  Mg  Mg5  1  -0.000000  0.000000  0.500000  1
  Mg  Mg6  1  -0.000000  0.000000  0.169239  1
