# generated using pymatgen
data_Li5FeO4
_symmetry_space_group_name_H-M   'P 1'
_cell_length_a   8.11567702
_cell_length_b   7.06914267
_cell_length_c   6.93479401
_cell_angle_alpha   90.00000000
_cell_angle_beta   90.00000000
_cell_angle_gamma   90.00000000
_symmetry_Int_Tables_number   1
_chemical_formula_structural   Li5FeO4
_chemical_formula_sum   'Li20 Fe4 O16'
_cell_volume   397.85522608
_cell_formula_units_Z   4
loop_
 _symmetry_equiv_pos_site_id
 _symmetry_equiv_pos_as_xyz
  1  'x, y, z'
loop_
 _atom_site_type_symbol
 _atom_site_label
 _atom_site_symmetry_multiplicity
 _atom_site_fract_x
 _atom_site_fract_y
 _atom_site_fract_z
 _atom_site_occupancy
  Li  Li1  1  0.000000  0.500000  0.275072  1
  Li  Li2  1  0.000000  0.500000  0.724928  1
  Li  Li3  1  0.076592  0.759559  0.500000  1
  Li  Li4  1  0.152628  0.986453  0.253690  1
  Li  Li5  1  0.152628  0.986453  0.746310  1
  Li  Li6  1  0.252620  0.746438  0.000000  1
  Li  Li7  1  0.247380  0.246438  0.500000  1
  Li  Li8  1  0.347372  0.486453  0.246310  1
  Li  Li9  1  0.347372  0.486453  0.753690  1
  Li  Li10  1  0.423408  0.259559  0.000000  1
  Li  Li11  1  0.500000  0.000000  0.775072  1
  Li  Li12  1  0.500000  0.000000  0.224928  1
  Li  Li13  1  0.576592  0.740441  0.000000  1
  Li  Li14  1  0.652628  0.513547  0.246310  1
  Li  Li15  1  0.652628  0.513547  0.753690  1
  Li  Li16  1  0.752620  0.753562  0.500000  1
  Li  Li17  1  0.747380  0.253562  0.000000  1
  Li  Li18  1  0.847372  0.013547  0.253690  1
  Li  Li19  1  0.847372  0.013547  0.746310  1
  Li  Li20  1  0.923408  0.240441  0.500000  1
  Fe  Fe21  1  0.117076  0.241901  0.000000  1
  Fe  Fe22  1  0.382924  0.741901  0.500000  1
  Fe  Fe23  1  0.617076  0.258099  0.500000  1
  Fe  Fe24  1  0.882924  0.758099  0.000000  1
  O  O25  1  0.010599  0.220847  0.242229  1
  O  O26  1  0.010599  0.220847  0.757771  1
  O  O27  1  0.226101  0.529795  0.500000  1
  O  O28  1  0.239029  0.469643  0.000000  1
  O  O29  1  0.260971  0.969643  0.500000  1
  O  O30  1  0.273899  0.029795  0.000000  1
  O  O31  1  0.489401  0.720847  0.742229  1
  O  O32  1  0.489401  0.720847  0.257771  1
  O  O33  1  0.510599  0.279153  0.257771  1
  O  O34  1  0.510599  0.279153  0.742229  1
  O  O35  1  0.726101  0.970205  0.000000  1
  O  O36  1  0.739029  0.030357  0.500000  1
  O  O37  1  0.760971  0.530357  0.000000  1
  O  O38  1  0.773899  0.470205  0.500000  1
  O  O39  1  0.989401  0.779153  0.242229  1
  O  O40  1  0.989401  0.779153  0.757771  1
