# generated using pymatgen
data_LiFe5O8
_symmetry_space_group_name_H-M   'P 1'
_cell_length_a   8.41410006
_cell_length_b   8.37664988
_cell_length_c   16.76566370
_cell_angle_alpha   90.20695278
_cell_angle_beta   90.23343620
_cell_angle_gamma   90.06701637
_symmetry_Int_Tables_number   1
_chemical_formula_structural   LiFe5O8
_chemical_formula_sum   'Li8 Fe40 O64'
_cell_volume   1181.65866662
_cell_formula_units_Z   8
loop_
 _symmetry_equiv_pos_site_id
 _symmetry_equiv_pos_as_xyz
  1  'x, y, z'
loop_
 _atom_site_type_symbol
 _atom_site_label
 _atom_site_symmetry_multiplicity
 _atom_site_fract_x
 _atom_site_fract_y
 _atom_site_fract_z
 _atom_site_occupancy
  Li  Li1  1  0.127107  0.622543  0.062820  1
  Li  Li2  1  0.122800  0.630441  0.564794  1
  Li  Li3  1  0.124449  0.871190  0.684456  1
  Li  Li4  1  0.132134  0.122189  0.316076  1
  Li  Li5  1  0.368794  0.123349  0.436287  1
  Li  Li6  1  0.372981  0.124608  0.934871  1
  Li  Li7  1  0.623705  0.627092  0.313924  1
  Li  Li8  1  0.621944  0.624796  0.811843  1
  Fe  Fe9  1  0.006789  0.506791  0.254218  1
  Fe  Fe10  1  0.004236  0.498732  0.749605  1
  Fe  Fe11  1  0.126074  0.371345  0.439246  1
  Fe  Fe12  1  0.126767  0.871527  0.189932  1
  Fe  Fe13  1  0.129685  0.373899  0.936268  1
  Fe  Fe14  1  0.127090  0.125830  0.811666  1
  Fe  Fe15  1  0.246127  0.742148  0.373704  1
  Fe  Fe16  1  0.248526  0.744671  0.873279  1
  Fe  Fe17  1  0.249031  0.250053  0.125318  1
  Fe  Fe18  1  0.247126  0.246978  0.624454  1
  Fe  Fe19  1  0.368030  0.871841  0.058993  1
  Fe  Fe20  1  0.364740  0.877904  0.561301  1
  Fe  Fe21  1  0.374234  0.624407  0.188184  1
  Fe  Fe22  1  0.372429  0.626923  0.688573  1
  Fe  Fe23  1  0.376998  0.370673  0.318187  1
  Fe  Fe24  1  0.376984  0.372977  0.812600  1
  Fe  Fe25  1  0.494680  0.506556  -0.001459  1
  Fe  Fe26  1  0.504492  0.504348  0.501497  1
  Fe  Fe27  1  0.502790  0.003015  0.252324  1
  Fe  Fe28  1  0.500411  0.006497  0.750890  1
  Fe  Fe29  1  0.621983  0.873597  0.935361  1
  Fe  Fe30  1  0.620937  0.877066  0.435570  1
  Fe  Fe31  1  0.619160  0.127275  0.059345  1
  Fe  Fe32  1  0.626129  0.127367  0.563399  1
  Fe  Fe33  1  0.623572  0.382275  0.191126  1
  Fe  Fe34  1  0.626758  0.373966  0.688037  1
  Fe  Fe35  1  0.744614  0.745649  0.124244  1
  Fe  Fe36  1  0.747945  0.745741  0.625050  1
  Fe  Fe37  1  0.746796  0.243204  0.376528  1
  Fe  Fe38  1  0.746349  0.245284  0.872003  1
  Fe  Fe39  1  0.874767  0.625807  0.936263  1
  Fe  Fe40  1  0.874965  0.622266  0.438039  1
  Fe  Fe41  1  0.882648  0.377958  0.062361  1
  Fe  Fe42  1  0.873166  0.374820  0.563432  1
  Fe  Fe43  1  0.875198  0.873581  0.313179  1
  Fe  Fe44  1  0.876263  0.872230  0.807971  1
  Fe  Fe45  1  0.879236  0.124933  0.192580  1
  Fe  Fe46  1  0.876767  0.125877  0.686305  1
  Fe  Fe47  1  0.003792  0.007170  0.499364  1
  Fe  Fe48  1  0.003006  0.005391  0.997756  1
  O  O49  1  0.113592  0.606520  0.438043  1
  O  O50  1  0.115063  0.608205  0.937093  1
  O  O51  1  0.131659  0.875086  0.064994  1
  O  O52  1  0.133487  0.880578  0.562613  1
  O  O53  1  0.118847  0.371856  0.053790  1
  O  O54  1  0.106711  0.368441  0.557351  1
  O  O55  1  0.108210  0.874497  0.309300  1
  O  O56  1  0.141972  0.631345  0.186464  1
  O  O57  1  0.134116  0.622488  0.687926  1
  O  O58  1  0.115615  0.892842  0.815734  1
  O  O59  1  0.125461  0.144205  0.436912  1
  O  O60  1  0.124627  0.140461  0.929553  1
  O  O61  1  0.115008  0.114815  0.187725  1
  O  O62  1  0.106810  0.133436  0.694806  1
  O  O63  1  0.133408  0.373840  0.318680  1
  O  O64  1  0.139241  0.362517  0.818108  1
  O  O65  1  0.375426  0.633789  0.071599  1
  O  O66  1  0.374403  0.633300  0.568185  1
  O  O67  1  0.383974  0.873249  0.440139  1
  O  O68  1  0.388473  0.869851  0.940683  1
  O  O69  1  0.367699  0.862420  0.184688  1
  O  O70  1  0.379415  0.866840  0.685512  1
  O  O71  1  0.384459  0.115225  0.062884  1
  O  O72  1  0.378928  0.379988  0.432891  1
  O  O73  1  0.394892  0.119935  0.565595  1
  O  O74  1  0.362952  0.378157  0.930126  1
  O  O75  1  0.375116  0.615376  0.303991  1
  O  O76  1  0.376757  0.605661  0.809359  1
  O  O77  1  0.377767  0.138771  0.310942  1
  O  O78  1  0.359803  0.140406  0.810334  1
  O  O79  1  0.381262  0.387370  0.190622  1
  O  O80  1  0.390697  0.376988  0.692856  1
  O  O81  1  0.616945  0.882038  0.055343  1
  O  O82  1  0.622014  0.892159  0.559624  1
  O  O83  1  0.634232  0.639243  0.937825  1
  O  O84  1  0.638609  0.635717  0.438007  1
  O  O85  1  0.624544  0.110578  0.939779  1
  O  O86  1  0.629297  0.115726  0.447721  1
  O  O87  1  0.610159  0.616473  0.186530  1
  O  O88  1  0.620485  0.605628  0.688211  1
  O  O89  1  0.642589  0.876554  0.316459  1
  O  O90  1  0.633885  0.882368  0.819915  1
  O  O91  1  0.631641  0.368862  0.065147  1
  O  O92  1  0.637117  0.363638  0.569867  1
  O  O93  1  0.619082  0.374850  0.307972  1
  O  O94  1  0.611673  0.367647  0.805177  1
  O  O95  1  0.635409  0.136246  0.181853  1
  O  O96  1  0.640323  0.137874  0.681930  1
  O  O97  1  0.872527  0.867004  0.431154  1
  O  O98  1  0.861211  0.869049  0.933820  1
  O  O99  1  0.875285  0.614382  0.058625  1
  O  O100  1  0.873594  0.607156  0.559762  1
  O  O101  1  0.871703  0.640127  0.315876  1
  O  O102  1  0.874660  0.634206  0.815955  1
  O  O103  1  0.865088  0.133664  0.066239  1
  O  O104  1  0.862096  0.139571  0.568942  1
  O  O105  1  0.884773  0.379494  0.939152  1
  O  O106  1  0.867962  0.382080  0.444240  1
  O  O107  1  0.880764  0.878157  0.192866  1
  O  O108  1  0.869424  0.893223  0.690515  1
  O  O109  1  0.868620  0.371060  0.184474  1
  O  O110  1  0.863133  0.361553  0.682355  1
  O  O111  1  0.871419  0.109876  0.308231  1
  O  O112  1  0.888684  0.120561  0.805172  1
