# generated using pymatgen
data_Li5Mg
_symmetry_space_group_name_H-M   'P 1'
_cell_length_a   3.12458644
_cell_length_b   3.12458608
_cell_length_c   14.59961106
_cell_angle_alpha   90.00000000
_cell_angle_beta   90.00000000
_cell_angle_gamma   120.00000379
_symmetry_Int_Tables_number   1
_chemical_formula_structural   Li5Mg
_chemical_formula_sum   'Li5 Mg1'
_cell_volume   123.44029157
_cell_formula_units_Z   1
loop_
 _symmetry_equiv_pos_site_id
 _symmetry_equiv_pos_as_xyz
  1  'x, y, z'
loop_
 _atom_site_type_symbol
 _atom_site_label
 _atom_site_symmetry_multiplicity
 _atom_site_fract_x
 _atom_site_fract_y
 _atom_site_fract_z
 _atom_site_occupancy
  Li  Li1  1  0.666667  0.333333  0.170634  1
  Li  Li2  1  0.000000  -0.000000  0.335235  1
  Li  Li3  1  0.666667  0.333333  0.500000  1
  Li  Li4  1  0.000000  -0.000000  0.664765  1
  Li  Li5  1  0.666667  0.333333  0.829366  1
  Mg  Mg6  1  0.000000  0.000000  -0.000000  1
