# generated using pymatgen
data_LiMg
_symmetry_space_group_name_H-M   'P 1'
_cell_length_a   9.14173987
_cell_length_b   5.42769506
_cell_length_c   5.84945502
_cell_angle_alpha   90.00000000
_cell_angle_beta   119.97848487
_cell_angle_gamma   90.00000000
_symmetry_Int_Tables_number   1
_chemical_formula_structural   LiMg
_chemical_formula_sum   'Li6 Mg6'
_cell_volume   251.41110177
_cell_formula_units_Z   6
loop_
 _symmetry_equiv_pos_site_id
 _symmetry_equiv_pos_as_xyz
  1  'x, y, z'
loop_
 _atom_site_type_symbol
 _atom_site_label
 _atom_site_symmetry_multiplicity
 _atom_site_fract_x
 _atom_site_fract_y
 _atom_site_fract_z
 _atom_site_occupancy
  Li  Li1  1  0.333706  0.668079  0.000559  1
  Li  Li2  1  0.666294  0.668079  0.999441  1
  Li  Li3  1  0.000000  0.497588  0.500000  1
  Li  Li4  1  0.833706  0.168079  0.000559  1
  Li  Li5  1  0.166294  0.168079  0.999441  1
  Li  Li6  1  0.500000  0.997588  0.500000  1
  Mg  Mg7  1  0.000000  0.666900  -0.000000  1
  Mg  Mg8  1  0.333906  0.499678  0.498781  1
  Mg  Mg9  1  0.666094  0.499678  0.501219  1
  Mg  Mg10  1  0.500000  0.166900  -0.000000  1
  Mg  Mg11  1  0.833906  0.999678  0.498781  1
  Mg  Mg12  1  0.166094  0.999678  0.501219  1
