# generated using pymatgen
data_LiMg2
_symmetry_space_group_name_H-M   'P 1'
_cell_length_a   5.01420292
_cell_length_b   3.15158458
_cell_length_c   16.57814585
_cell_angle_alpha   90.00000000
_cell_angle_beta   90.00000000
_cell_angle_gamma   90.00000000
_symmetry_Int_Tables_number   1
_chemical_formula_structural   LiMg2
_chemical_formula_sum   'Li4 Mg8'
_cell_volume   261.97921018
_cell_formula_units_Z   4
loop_
 _symmetry_equiv_pos_site_id
 _symmetry_equiv_pos_as_xyz
  1  'x, y, z'
loop_
 _atom_site_type_symbol
 _atom_site_label
 _atom_site_symmetry_multiplicity
 _atom_site_fract_x
 _atom_site_fract_y
 _atom_site_fract_z
 _atom_site_occupancy
  Li  Li1  1  0.500000  0.500000  0.388981  1
  Li  Li2  1  0.500000  0.000000  0.222532  1
  Li  Li3  1  0.500000  0.000000  0.888981  1
  Li  Li4  1  0.500000  0.500000  0.722532  1
  Mg  Mg5  1  -0.000000  0.000000  0.998893  1
  Mg  Mg6  1  0.000000  0.500000  0.167945  1
  Mg  Mg7  1  0.000000  -0.000000  0.332841  1
  Mg  Mg8  1  0.500000  0.500000  0.055474  1
  Mg  Mg9  1  -0.000000  0.500000  0.498893  1
  Mg  Mg10  1  0.000000  0.000000  0.667945  1
  Mg  Mg11  1  0.000000  0.500000  0.832841  1
  Mg  Mg12  1  0.500000  -0.000000  0.555474  1
