# generated using pymatgen
data_LiMg
_symmetry_space_group_name_H-M   'P 1'
_cell_length_a   3.15113553
_cell_length_b   3.15113486
_cell_length_c   14.90874443
_cell_angle_alpha   90.00000000
_cell_angle_beta   90.00000000
_cell_angle_gamma   120.00000717
_symmetry_Int_Tables_number   1
_chemical_formula_structural   LiMg
_chemical_formula_sum   'Li3 Mg3'
_cell_volume   128.20523016
_cell_formula_units_Z   3
loop_
 _symmetry_equiv_pos_site_id
 _symmetry_equiv_pos_as_xyz
  1  'x, y, z'
loop_
 _atom_site_type_symbol
 _atom_site_label
 _atom_site_symmetry_multiplicity
 _atom_site_fract_x
 _atom_site_fract_y
 _atom_site_fract_z
 _atom_site_occupancy
  Li  Li1  1  0.333333  0.666667  0.832494  1
  Li  Li2  1  -0.000000  0.000000  0.666772  1
  Li  Li3  1  0.333333  0.666667  0.167290  1
  Mg  Mg4  1  -0.000000  0.000000  0.000108  1
  Mg  Mg5  1  0.333333  0.666667  0.501867  1
  Mg  Mg6  1  -0.000000  -0.000000  0.331468  1
