# generated using pymatgen
data_Li5Fe11O16
_symmetry_space_group_name_H-M   'P 1'
_cell_length_a   6.09275414
_cell_length_b   12.09918125
_cell_length_c   8.53458413
_cell_angle_alpha   90.00000000
_cell_angle_beta   89.98101106
_cell_angle_gamma   90.00000000
_symmetry_Int_Tables_number   1
_chemical_formula_structural   Li5Fe11O16
_chemical_formula_sum   'Li10 Fe22 O32'
_cell_volume   629.14677654
_cell_formula_units_Z   2
loop_
 _symmetry_equiv_pos_site_id
 _symmetry_equiv_pos_as_xyz
  1  'x, y, z'
loop_
 _atom_site_type_symbol
 _atom_site_label
 _atom_site_symmetry_multiplicity
 _atom_site_fract_x
 _atom_site_fract_y
 _atom_site_fract_z
 _atom_site_occupancy
  Li  Li1  1  0.752891  0.001664  0.116365  1
  Li  Li2  1  0.747109  0.501664  0.133635  1
  Li  Li3  1  0.507872  0.621023  0.374343  1
  Li  Li4  1  0.500000  0.375000  0.375000  1
  Li  Li5  1  0.492128  0.128977  0.375657  1
  Li  Li6  1  0.247109  0.748336  0.633635  1
  Li  Li7  1  0.252891  0.248336  0.616365  1
  Li  Li8  1  0.000000  0.875000  0.875000  1
  Li  Li9  1  0.992128  0.121023  0.875657  1
  Li  Li10  1  0.007872  0.628977  0.874343  1
  Fe  Fe11  1  0.247254  0.002883  0.115332  1
  Fe  Fe12  1  0.249706  0.248801  0.129452  1
  Fe  Fe13  1  0.250294  0.748801  0.120548  1
  Fe  Fe14  1  0.252746  0.502883  0.134668  1
  Fe  Fe15  1  0.748274  0.246640  0.133328  1
  Fe  Fe16  1  0.751726  0.746640  0.116672  1
  Fe  Fe17  1  0.005305  0.624205  0.375000  1
  Fe  Fe18  1  0.994695  0.125796  0.375000  1
  Fe  Fe19  1  0.500000  0.875000  0.375000  1
  Fe  Fe20  1  0.000000  0.875000  0.375000  1
  Fe  Fe21  1  0.000000  0.375000  0.375000  1
  Fe  Fe22  1  0.750294  0.501199  0.620548  1
  Fe  Fe23  1  0.749706  0.001199  0.629452  1
  Fe  Fe24  1  0.251726  0.503360  0.616672  1
  Fe  Fe25  1  0.752746  0.747117  0.634668  1
  Fe  Fe26  1  0.747254  0.247117  0.615332  1
  Fe  Fe27  1  0.248274  0.003360  0.633328  1
  Fe  Fe28  1  0.500000  0.875000  0.875000  1
  Fe  Fe29  1  0.500000  0.375000  0.875000  1
  Fe  Fe30  1  0.505305  0.625795  0.875000  1
  Fe  Fe31  1  0.494695  0.124204  0.875000  1
  Fe  Fe32  1  0.000000  0.375000  0.875000  1
  O  O33  1  0.016366  0.376862  0.121498  1
  O  O34  1  0.015049  0.124856  0.119915  1
  O  O35  1  0.020908  0.624286  0.120567  1
  O  O36  1  0.015554  0.875798  0.132909  1
  O  O37  1  0.484446  0.375798  0.117091  1
  O  O38  1  0.483634  0.876862  0.128502  1
  O  O39  1  0.479092  0.124286  0.129433  1
  O  O40  1  0.484951  0.624856  0.130085  1
  O  O41  1  0.766089  0.500292  0.386007  1
  O  O42  1  0.764678  0.995927  0.384857  1
  O  O43  1  0.238387  0.994733  0.374506  1
  O  O44  1  0.260891  0.499170  0.371325  1
  O  O45  1  0.235322  0.754073  0.365143  1
  O  O46  1  0.761613  0.755267  0.375494  1
  O  O47  1  0.233911  0.249708  0.363993  1
  O  O48  1  0.739109  0.250830  0.378675  1
  O  O49  1  0.515049  0.125144  0.619915  1
  O  O50  1  0.516366  0.873138  0.621498  1
  O  O51  1  0.520908  0.625714  0.620567  1
  O  O52  1  0.515554  0.374202  0.632909  1
  O  O53  1  0.979092  0.125714  0.629433  1
  O  O54  1  0.984446  0.874202  0.617091  1
  O  O55  1  0.984951  0.625144  0.630085  1
  O  O56  1  0.983634  0.373138  0.628502  1
  O  O57  1  0.264678  0.254073  0.884857  1
  O  O58  1  0.760891  0.750830  0.871325  1
  O  O59  1  0.738387  0.255267  0.874506  1
  O  O60  1  0.266089  0.749708  0.886007  1
  O  O61  1  0.261613  0.494733  0.875494  1
  O  O62  1  0.733911  0.000292  0.863993  1
  O  O63  1  0.735322  0.495927  0.865143  1
  O  O64  1  0.239109  0.999170  0.878675  1
