# generated using pymatgen
data_Li(FeO2)2
_symmetry_space_group_name_H-M   'P 1'
_cell_length_a   8.31305855
_cell_length_b   8.32581076
_cell_length_c   8.31128026
_cell_angle_alpha   89.93491968
_cell_angle_beta   90.15608484
_cell_angle_gamma   89.99764588
_symmetry_Int_Tables_number   1
_chemical_formula_structural   Li(FeO2)2
_chemical_formula_sum   'Li8 Fe16 O32'
_cell_volume   575.24573839
_cell_formula_units_Z   8
loop_
 _symmetry_equiv_pos_site_id
 _symmetry_equiv_pos_as_xyz
  1  'x, y, z'
loop_
 _atom_site_type_symbol
 _atom_site_label
 _atom_site_symmetry_multiplicity
 _atom_site_fract_x
 _atom_site_fract_y
 _atom_site_fract_z
 _atom_site_occupancy
  Li  Li1  1  0.120818  0.874392  0.375263  1
  Li  Li2  1  0.253322  0.751334  0.744906  1
  Li  Li3  1  0.249355  0.251484  0.244694  1
  Li  Li4  1  0.376337  0.123306  0.878925  1
  Li  Li5  1  0.623089  0.626291  0.620681  1
  Li  Li6  1  0.754889  0.748816  0.251745  1
  Li  Li7  1  0.751953  0.249280  0.747728  1
  Li  Li8  1  0.878886  0.374437  0.125120  1
  Fe  Fe9  1  0.997633  0.501722  0.498919  1
  Fe  Fe10  1  0.119794  0.620139  0.122686  1
  Fe  Fe11  1  0.119559  0.378692  0.880647  1
  Fe  Fe12  1  0.125664  0.120968  0.622026  1
  Fe  Fe13  1  0.373727  0.881297  0.123953  1
  Fe  Fe14  1  0.377999  0.620341  0.378621  1
  Fe  Fe15  1  0.379947  0.377217  0.625114  1
  Fe  Fe16  1  0.497100  0.497556  0.003829  1
  Fe  Fe17  1  0.501281  0.995228  0.503482  1
  Fe  Fe18  1  0.621886  0.879673  0.879989  1
  Fe  Fe19  1  0.622693  0.122253  0.123501  1
  Fe  Fe20  1  0.622630  0.377359  0.378083  1
  Fe  Fe21  1  0.873136  0.620468  0.877181  1
  Fe  Fe22  1  0.876638  0.879329  0.621029  1
  Fe  Fe23  1  0.875784  0.122944  0.378671  1
  Fe  Fe24  1  0.997730  0.003355  0.002529  1
  O  O25  1  0.095302  0.130360  0.382716  1
  O  O26  1  0.097238  0.886620  0.627042  1
  O  O27  1  0.121863  0.610157  0.892346  1
  O  O28  1  0.125046  0.394340  0.104735  1
  O  O29  1  0.121856  0.144174  0.871978  1
  O  O30  1  0.129535  0.369104  0.637205  1
  O  O31  1  0.139497  0.619455  0.357957  1
  O  O32  1  0.134502  0.861521  0.120416  1
  O  O33  1  0.362716  0.131043  0.617269  1
  O  O34  1  0.359158  0.376794  0.865421  1
  O  O35  1  0.360648  0.629676  0.138620  1
  O  O36  1  0.382985  0.854104  0.366674  1
  O  O37  1  0.373336  0.614564  0.596984  1
  O  O38  1  0.390411  0.390256  0.378671  1
  O  O39  1  0.401893  0.114060  0.129733  1
  O  O40  1  0.403452  0.873554  0.885243  1
  O  O41  1  0.615296  0.375234  0.599042  1
  O  O42  1  0.603463  0.602544  0.368025  1
  O  O43  1  0.622448  0.890659  0.109731  1
  O  O44  1  0.628379  0.105728  0.897799  1
  O  O45  1  0.624056  0.357515  0.139119  1
  O  O46  1  0.636319  0.135543  0.364841  1
  O  O47  1  0.641739  0.878069  0.644996  1
  O  O48  1  0.634370  0.635521  0.884786  1
  O  O49  1  0.856346  0.361530  0.377100  1
  O  O50  1  0.858475  0.121964  0.143361  1
  O  O51  1  0.862831  0.870681  0.864541  1
  O  O52  1  0.876090  0.646533  0.629572  1
  O  O53  1  0.868426  0.897771  0.396564  1
  O  O54  1  0.878062  0.110332  0.608101  1
  O  O55  1  0.899214  0.386840  0.873434  1
  O  O56  1  0.903197  0.625948  0.116735  1
