# generated using pymatgen
data_Li3BiO3
_symmetry_space_group_name_H-M   'P 1'
_cell_length_a   7.55853095
_cell_length_b   10.57359898
_cell_length_c   10.57359898
_cell_angle_alpha   97.33973438
_cell_angle_beta   110.94212514
_cell_angle_gamma   69.05787486
_symmetry_Int_Tables_number   1
_chemical_formula_structural   Li3BiO3
_chemical_formula_sum   'Li24 Bi8 O24'
_cell_volume   737.09390938
_cell_formula_units_Z   8
loop_
 _symmetry_equiv_pos_site_id
 _symmetry_equiv_pos_as_xyz
  1  'x, y, z'
loop_
 _atom_site_type_symbol
 _atom_site_label
 _atom_site_symmetry_multiplicity
 _atom_site_fract_x
 _atom_site_fract_y
 _atom_site_fract_z
 _atom_site_occupancy
  Li  Li1  1  0.899165  0.120629  0.034551  1
  Li  Li2  1  0.441556  0.099109  0.372568  1
  Li  Li3  1  0.093585  0.216654  0.223023  1
  Li  Li4  1  0.812722  0.411562  0.132224  1
  Li  Li5  1  0.430498  0.632224  0.088438  1
  Li  Li6  1  0.290666  0.127432  0.599109  1
  Li  Li7  1  0.076563  0.383749  0.464672  1
  Li  Li8  1  0.362299  0.376403  0.441624  1
  Li  Li9  1  0.614614  0.534551  0.379371  1
  Li  Li10  1  0.488703  0.058376  0.876403  1
  Li  Li11  1  0.361892  0.964672  0.116251  1
  Li  Li12  1  0.060239  0.276977  0.716654  1
  Li  Li13  1  0.620561  0.723023  0.283346  1
  Li  Li14  1  0.210314  0.035328  0.883749  1
  Li  Li15  1  0.670675  0.941624  0.123597  1
  Li  Li16  1  0.769794  0.465449  0.620629  1
  Li  Li17  1  0.297079  0.623597  0.558376  1
  Li  Li18  1  0.995641  0.616251  0.535328  1
  Li  Li19  1  0.818988  0.872568  0.400891  1
  Li  Li20  1  0.974284  0.367776  0.911562  1
  Li  Li21  1  0.092060  0.588438  0.867776  1
  Li  Li22  1  0.087215  0.783346  0.776977  1
  Li  Li23  1  0.168096  0.900891  0.627432  1
  Li  Li24  1  0.985243  0.879371  0.965449  1
  Bi  Bi25  1  0.380202  0.309860  0.120600  1
  Bi  Bi26  1  0.862904  0.183567  0.372062  1
  Bi  Bi27  1  0.796471  0.127938  0.683567  1
  Bi  Bi28  1  0.009602  0.620600  0.190140  1
  Bi  Bi29  1  0.440063  0.379400  0.809860  1
  Bi  Bi30  1  0.240841  0.872062  0.316433  1
  Bi  Bi31  1  0.674409  0.816433  0.627938  1
  Bi  Bi32  1  0.569463  0.690140  0.879400  1
  O  O33  1  0.421199  0.113890  0.045670  1
  O  O34  1  0.796174  0.245995  0.169895  1
  O  O35  1  0.068537  0.345283  0.101919  1
  O  O36  1  0.188831  0.185444  0.412857  1
  O  O37  1  0.505157  0.248109  0.332758  1
  O  O38  1  0.716620  0.601919  0.154717  1
  O  O39  1  0.124275  0.087143  0.685444  1
  O  O40  1  0.831648  0.370999  0.467078  1
  O  O41  1  0.376279  0.669895  0.254005  1
  O  O42  1  0.503267  0.167242  0.748109  1
  O  O43  1  0.952646  0.032922  0.870999  1
  O  O44  1  0.125529  0.545670  0.386110  1
  O  O45  1  0.285088  0.454330  0.613890  1
  O  O46  1  0.114570  0.967078  0.129001  1
  O  O47  1  0.922400  0.832758  0.251891  1
  O  O48  1  0.792168  0.330105  0.745995  1
  O  O49  1  0.735569  0.629001  0.532922  1
  O  O50  1  0.525974  0.912857  0.314556  1
  O  O51  1  0.163820  0.398081  0.845283  1
  O  O52  1  0.420509  0.751891  0.667242  1
  O  O53  1  0.961418  0.814556  0.587143  1
  O  O54  1  0.311901  0.654717  0.898081  1
  O  O55  1  0.872274  0.754005  0.830105  1
  O  O56  1  0.489419  0.886110  0.954330  1
