# generated using pymatgen
data_LiMg5
_symmetry_space_group_name_H-M   'P 1'
_cell_length_a   5.12473492
_cell_length_b   3.16770433
_cell_length_c   16.53231316
_cell_angle_alpha   90.00000000
_cell_angle_beta   90.00000000
_cell_angle_gamma   90.00000000
_symmetry_Int_Tables_number   1
_chemical_formula_structural   LiMg5
_chemical_formula_sum   'Li2 Mg10'
_cell_volume   268.37970281
_cell_formula_units_Z   2
loop_
 _symmetry_equiv_pos_site_id
 _symmetry_equiv_pos_as_xyz
  1  'x, y, z'
loop_
 _atom_site_type_symbol
 _atom_site_label
 _atom_site_symmetry_multiplicity
 _atom_site_fract_x
 _atom_site_fract_y
 _atom_site_fract_z
 _atom_site_occupancy
  Li  Li1  1  0.500000  0.500000  0.722306  1
  Li  Li2  1  0.500000  0.000000  0.222306  1
  Mg  Mg3  1  0.000000  0.000000  0.000030  1
  Mg  Mg4  1  0.000000  -0.000000  0.667556  1
  Mg  Mg5  1  -0.000000  0.500000  0.832324  1
  Mg  Mg6  1  0.500000  -0.000000  0.887760  1
  Mg  Mg7  1  0.500000  0.000000  0.556691  1
  Mg  Mg8  1  0.000000  0.500000  0.500030  1
  Mg  Mg9  1  -0.000000  0.500000  0.167556  1
  Mg  Mg10  1  -0.000000  0.000000  0.332324  1
  Mg  Mg11  1  0.500000  0.500000  0.387760  1
  Mg  Mg12  1  0.500000  0.500000  0.056691  1
