# generated using pymatgen
data_LiMg2
_symmetry_space_group_name_H-M   'P 1'
_cell_length_a   11.32742911
_cell_length_b   3.20304553
_cell_length_c   7.37704953
_cell_angle_alpha   90.00000000
_cell_angle_beta   105.29138556
_cell_angle_gamma   90.00000000
_symmetry_Int_Tables_number   1
_chemical_formula_structural   LiMg2
_chemical_formula_sum   'Li4 Mg8'
_cell_volume   258.18030397
_cell_formula_units_Z   4
loop_
 _symmetry_equiv_pos_site_id
 _symmetry_equiv_pos_as_xyz
  1  'x, y, z'
loop_
 _atom_site_type_symbol
 _atom_site_label
 _atom_site_symmetry_multiplicity
 _atom_site_fract_x
 _atom_site_fract_y
 _atom_site_fract_z
 _atom_site_occupancy
  Li  Li1  1  0.472269  0.000000  0.195275  1
  Li  Li2  1  0.027731  0.500000  0.804725  1
  Li  Li3  1  0.972269  0.500000  0.195275  1
  Li  Li4  1  0.527731  0.000000  0.804725  1
  Mg  Mg5  1  0.191751  0.000000  0.135608  1
  Mg  Mg6  1  0.361307  0.500000  0.471132  1
  Mg  Mg7  1  0.138693  -0.000000  0.528868  1
  Mg  Mg8  1  0.308249  0.500000  0.864392  1
  Mg  Mg9  1  0.691751  0.500000  0.135608  1
  Mg  Mg10  1  0.861307  -0.000000  0.471132  1
  Mg  Mg11  1  0.638693  0.500000  0.528868  1
  Mg  Mg12  1  0.808249  -0.000000  0.864392  1
