# generated using pymatgen
data_LiMg2
_symmetry_space_group_name_H-M   'P 1'
_cell_length_a   11.39624098
_cell_length_b   3.19402979
_cell_length_c   7.43610259
_cell_angle_alpha   90.00000000
_cell_angle_beta   104.99958902
_cell_angle_gamma   90.00000000
_symmetry_Int_Tables_number   1
_chemical_formula_structural   LiMg2
_chemical_formula_sum   'Li4 Mg8'
_cell_volume   261.45115933
_cell_formula_units_Z   4
loop_
 _symmetry_equiv_pos_site_id
 _symmetry_equiv_pos_as_xyz
  1  'x, y, z'
loop_
 _atom_site_type_symbol
 _atom_site_label
 _atom_site_symmetry_multiplicity
 _atom_site_fract_x
 _atom_site_fract_y
 _atom_site_fract_z
 _atom_site_occupancy
  Li  Li1  1  0.388884  0.000000  0.277491  1
  Li  Li2  1  0.055340  0.000000  0.610952  1
  Li  Li3  1  0.888884  0.500000  0.277491  1
  Li  Li4  1  0.555340  0.500000  0.610952  1
  Mg  Mg5  1  0.999948  0.000000  0.001273  1
  Mg  Mg6  1  0.166969  0.500000  0.335141  1
  Mg  Mg7  1  0.333891  -0.000000  0.665123  1
  Mg  Mg8  1  0.221635  0.500000  0.943353  1
  Mg  Mg9  1  0.499948  0.500000  0.001273  1
  Mg  Mg10  1  0.666969  0.000000  0.335141  1
  Mg  Mg11  1  0.833891  0.500000  0.665123  1
  Mg  Mg12  1  0.721635  0.000000  0.943353  1
