# generated using pymatgen
data_Li3FeO4
_symmetry_space_group_name_H-M   'P 1'
_cell_length_a   7.13424240
_cell_length_b   7.13424278
_cell_length_c   7.13424206
_cell_angle_alpha   109.47121965
_cell_angle_beta   109.47122160
_cell_angle_gamma   109.47121956
_symmetry_Int_Tables_number   1
_chemical_formula_structural   Li3FeO4
_chemical_formula_sum   'Li12 Fe4 O16'
_cell_volume   279.52567265
_cell_formula_units_Z   4
loop_
 _symmetry_equiv_pos_site_id
 _symmetry_equiv_pos_as_xyz
  1  'x, y, z'
loop_
 _atom_site_type_symbol
 _atom_site_label
 _atom_site_symmetry_multiplicity
 _atom_site_fract_x
 _atom_site_fract_y
 _atom_site_fract_z
 _atom_site_occupancy
  Li  Li1  1  0.254432  0.747870  0.749469  1
  Li  Li2  1  0.250531  0.998401  0.504963  1
  Li  Li3  1  0.001599  0.252130  0.506562  1
  Li  Li4  1  0.493438  0.745568  0.495037  1
  Li  Li5  1  0.504963  0.250531  0.998401  1
  Li  Li6  1  0.252130  0.506562  0.001599  1
  Li  Li7  1  0.495037  0.493438  0.745568  1
  Li  Li8  1  0.747870  0.749469  0.254432  1
  Li  Li9  1  0.506562  0.001599  0.252130  1
  Li  Li10  1  0.745568  0.495037  0.493438  1
  Li  Li11  1  0.749469  0.254432  0.747870  1
  Li  Li12  1  0.998401  0.504963  0.250531  1
  Fe  Fe13  1  1.000000  1.000000  0.735467  1
  Fe  Fe14  1  0.000000  0.735467  0.000000  1
  Fe  Fe15  1  0.264533  0.264533  0.264533  1
  Fe  Fe16  1  0.735467  0.000000  0.000000  1
  O  O17  1  -0.000010  0.771762  0.525256  1
  O  O18  1  0.228238  0.228228  0.753494  1
  O  O19  1  0.228228  0.753494  0.228238  1
  O  O20  1  0.525265  0.771772  0.000010  1
  O  O21  1  0.246506  0.474735  0.474744  1
  O  O22  1  1.000000  1.000000  0.224126  1
  O  O23  1  0.000000  0.224126  0.000000  1
  O  O24  1  0.224126  0.000000  0.000000  1
  O  O25  1  0.474744  0.246506  0.474735  1
  O  O26  1  0.474735  0.474744  0.246506  1
  O  O27  1  0.525256  -0.000010  0.771762  1
  O  O28  1  0.771772  0.000010  0.525265  1
  O  O29  1  0.775874  0.775874  0.775874  1
  O  O30  1  0.000010  0.525265  0.771772  1
  O  O31  1  0.753494  0.228238  0.228228  1
  O  O32  1  0.771762  0.525256  -0.000010  1
