# generated using pymatgen
data_LiFe5O8
_symmetry_space_group_name_H-M   'P 1'
_cell_length_a   5.97781800
_cell_length_b   6.02385716
_cell_length_c   6.02385726
_cell_angle_alpha   59.99999783
_cell_angle_beta   59.74490439
_cell_angle_gamma   59.74490392
_symmetry_Int_Tables_number   1
_chemical_formula_structural   LiFe5O8
_chemical_formula_sum   'Li1 Fe5 O8'
_cell_volume   152.78885416
_cell_formula_units_Z   1
loop_
 _symmetry_equiv_pos_site_id
 _symmetry_equiv_pos_as_xyz
  1  'x, y, z'
loop_
 _atom_site_type_symbol
 _atom_site_label
 _atom_site_symmetry_multiplicity
 _atom_site_fract_x
 _atom_site_fract_y
 _atom_site_fract_z
 _atom_site_occupancy
  Fe  Fe1  1  0.984519  0.005160  0.005160  1
  Fe  Fe2  1  0.265481  0.244840  0.244840  1
  Fe  Fe3  1  0.625000  0.125000  0.625000  1
  Fe  Fe4  1  0.625000  0.625000  0.125000  1
  Fe  Fe5  1  0.625000  0.625000  0.625000  1
  Li  Li6  1  0.125000  0.625000  0.625000  1
  O  O7  1  0.393371  0.376204  0.376204  1
  O  O8  1  0.393371  0.854221  0.376204  1
  O  O9  1  0.393371  0.376204  0.854221  1
  O  O10  1  0.856745  0.381085  0.381085  1
  O  O11  1  0.393255  0.868915  0.868915  1
  O  O12  1  0.856629  0.395779  0.873796  1
  O  O13  1  0.856629  0.873796  0.395779  1
  O  O14  1  0.856629  0.873796  0.873796  1
