# generated using pymatgen
data_LiMg5
_symmetry_space_group_name_H-M   'P 1'
_cell_length_a   11.44066787
_cell_length_b   3.23322690
_cell_length_c   7.44423146
_cell_angle_alpha   90.00000000
_cell_angle_beta   104.58561436
_cell_angle_gamma   90.00000000
_symmetry_Int_Tables_number   1
_chemical_formula_structural   LiMg5
_chemical_formula_sum   'Li2 Mg10'
_cell_volume   266.48985126
_cell_formula_units_Z   2
loop_
 _symmetry_equiv_pos_site_id
 _symmetry_equiv_pos_as_xyz
  1  'x, y, z'
loop_
 _atom_site_type_symbol
 _atom_site_label
 _atom_site_symmetry_multiplicity
 _atom_site_fract_x
 _atom_site_fract_y
 _atom_site_fract_z
 _atom_site_occupancy
  Li  Li1  1  0.388963  0.000000  0.277804  1
  Li  Li2  1  0.888963  0.500000  0.277804  1
  Mg  Mg3  1  0.999663  -0.000000  0.003911  1
  Mg  Mg4  1  0.167778  0.500000  0.333190  1
  Mg  Mg5  1  0.054058  -0.000000  0.607476  1
  Mg  Mg6  1  0.333732  -0.000000  0.665380  1
  Mg  Mg7  1  0.222473  0.500000  0.945572  1
  Mg  Mg8  1  0.499663  0.500000  0.003911  1
  Mg  Mg9  1  0.667778  0.000000  0.333190  1
  Mg  Mg10  1  0.554058  0.500000  0.607476  1
  Mg  Mg11  1  0.833732  0.500000  0.665380  1
  Mg  Mg12  1  0.722473  -0.000000  0.945572  1
