# generated using pymatgen
data_LiFe3O4
_symmetry_space_group_name_H-M   'P 1'
_cell_length_a   3.04956318
_cell_length_b   5.19557415
_cell_length_c   5.19323164
_cell_angle_alpha   72.06699042
_cell_angle_beta   90.00169400
_cell_angle_gamma   89.99196738
_symmetry_Int_Tables_number   1
_chemical_formula_structural   LiFe3O4
_chemical_formula_sum   'Li1 Fe3 O4'
_cell_volume   78.28523438
_cell_formula_units_Z   1
loop_
 _symmetry_equiv_pos_site_id
 _symmetry_equiv_pos_as_xyz
  1  'x, y, z'
loop_
 _atom_site_type_symbol
 _atom_site_label
 _atom_site_symmetry_multiplicity
 _atom_site_fract_x
 _atom_site_fract_y
 _atom_site_fract_z
 _atom_site_occupancy
  Li  Li1  1  0.509175  0.499504  0.000057  1
  Fe  Fe2  1  0.010789  0.999436  0.000138  1
  Fe  Fe3  1  0.510861  0.999415  0.500134  1
  Fe  Fe4  1  0.010602  0.499408  0.500113  1
  O  O5  1  0.008524  0.753229  0.746138  1
  O  O6  1  0.510785  0.743677  0.244812  1
  O  O7  1  0.510656  0.255156  0.755448  1
  O  O8  1  0.013109  0.245578  0.254139  1
