# generated using pymatgen
data_K57Se34
_symmetry_space_group_name_H-M   'P 1'
_cell_length_a   6.18567347
_cell_length_b   9.58285107
_cell_length_c   58.14129800
_cell_angle_alpha   84.91499420
_cell_angle_beta   72.93980965
_cell_angle_gamma   72.61178759
_symmetry_Int_Tables_number   1
_chemical_formula_structural   K57Se34
_chemical_formula_sum   'K57 Se34'
_cell_volume   3144.18823128
_cell_formula_units_Z   1
loop_
 _symmetry_equiv_pos_site_id
 _symmetry_equiv_pos_as_xyz
  1  'x, y, z'
loop_
 _atom_site_type_symbol
 _atom_site_label
 _atom_site_symmetry_multiplicity
 _atom_site_fract_x
 _atom_site_fract_y
 _atom_site_fract_z
 _atom_site_occupancy
  K  K1  1  0.065590  0.706824  0.021100  1
  K  K2  1  0.320074  0.328282  0.017412  1
  K  K3  1  0.059604  0.705485  0.192332  1
  K  K4  1  0.172390  0.835153  0.120653  1
  K  K5  1  0.304518  0.331468  0.188320  1
  K  K6  1  0.427594  0.827776  0.051272  1
  K  K7  1  0.554946  0.133897  0.120544  1
  K  K8  1  0.816210  0.131458  0.046010  1
  K  K9  1  0.069267  0.693009  0.353114  1
  K  K10  1  0.199719  0.812426  0.281824  1
  K  K11  1  0.299306  0.312736  0.354989  1
  K  K12  1  0.763250  0.528211  0.085536  1
  K  K13  1  0.451573  0.817083  0.218953  1
  K  K14  1  0.557945  0.157790  0.281648  1
  K  K15  1  0.248286  0.505902  0.414570  1
  K  K16  1  0.680530  0.688775  0.148561  1
  K  K17  1  0.825333  0.137691  0.212639  1
  K  K18  1  0.071918  0.697935  0.520772  1
  K  K19  1  0.917304  0.306523  0.150259  1
  K  K20  1  0.181987  0.873538  0.448761  1
  K  K21  1  0.301879  0.317245  0.521270  1
  K  K22  1  0.422127  0.868712  0.384484  1
  K  K23  1  0.578387  0.131643  0.445958  1
  K  K24  1  0.253246  0.503779  0.581691  1
  K  K25  1  0.699423  0.680804  0.305174  1
  K  K26  1  0.819965  0.125842  0.382140  1
  K  K27  1  0.070885  0.697735  0.687859  1
  K  K28  1  0.901572  0.319326  0.314944  1
  K  K29  1  0.178988  0.873101  0.616570  1
  K  K30  1  0.301292  0.317517  0.688315  1
  K  K31  1  0.744360  0.498003  0.417045  1
  K  K32  1  0.423971  0.869017  0.552916  1
  K  K33  1  0.577437  0.130945  0.613423  1
  K  K34  1  0.252573  0.503867  0.748598  1
  K  K35  1  0.699606  0.682890  0.477717  1
  K  K36  1  0.822514  0.126898  0.549723  1
  K  K37  1  0.070495  0.698087  0.854815  1
  K  K38  1  0.930169  0.302227  0.478151  1
  K  K39  1  0.178210  0.873213  0.783423  1
  K  K40  1  0.301495  0.317490  0.855228  1
  K  K41  1  0.747319  0.495980  0.584682  1
  K  K42  1  0.423146  0.868892  0.719859  1
  K  K43  1  0.576698  0.130776  0.780296  1
  K  K44  1  0.254017  0.505546  0.915657  1
  K  K45  1  0.699289  0.682674  0.644922  1
  K  K46  1  0.821950  0.126978  0.716657  1
  K  K47  1  0.929742  0.302294  0.645388  1
  K  K48  1  0.178525  0.877642  0.951307  1
  K  K49  1  0.746642  0.496052  0.751592  1
  K  K50  1  0.421838  0.869511  0.887155  1
  K  K51  1  0.578766  0.126462  0.948311  1
  K  K52  1  0.698627  0.683041  0.811792  1
  K  K53  1  0.819175  0.127421  0.884099  1
  K  K54  1  0.928876  0.302231  0.812309  1
  K  K55  1  0.750175  0.496160  0.918209  1
  K  K56  1  0.702093  0.689912  0.978215  1
  K  K57  1  0.938584  0.298561  0.978332  1
  Se  Se58  1  0.280535  0.999697  0.001888  1
  Se  Se59  1  0.711534  0.001564  0.001602  1
  Se  Se60  1  0.362787  0.485320  0.133315  1
  Se  Se61  1  0.703496  0.481638  0.033326  1
  Se  Se62  1  0.266083  0.996319  0.167268  1
  Se  Se63  1  0.148127  0.191481  0.416660  1
  Se  Se64  1  0.328861  0.486375  0.302604  1
  Se  Se65  1  0.694082  0.486956  0.198354  1
  Se  Se66  1  0.302284  0.998884  0.499535  1
  Se  Se67  1  0.301211  0.996547  0.330589  1
  Se  Se68  1  0.813982  0.858982  0.082951  1
  Se  Se69  1  0.149032  0.190499  0.584473  1
  Se  Se70  1  0.727060  0.000142  0.167600  1
  Se  Se71  1  0.332187  0.505897  0.467524  1
  Se  Se72  1  0.656888  0.498835  0.364710  1
  Se  Se73  1  0.827462  0.869202  0.248965  1
  Se  Se74  1  0.148520  0.190699  0.751370  1
  Se  Se75  1  0.700208  0.001259  0.499488  1
  Se  Se76  1  0.700141  0.997453  0.330740  1
  Se  Se77  1  0.332086  0.505551  0.634801  1
  Se  Se78  1  0.668571  0.494295  0.531635  1
  Se  Se79  1  0.301417  0.998469  0.666725  1
  Se  Se80  1  0.846939  0.811364  0.414458  1
  Se  Se81  1  0.152013  0.191729  0.918489  1
  Se  Se82  1  0.331241  0.505738  0.801679  1
  Se  Se83  1  0.667756  0.494473  0.698642  1
  Se  Se84  1  0.300138  0.998776  0.833801  1
  Se  Se85  1  0.850580  0.809340  0.582107  1
  Se  Se86  1  0.699099  0.001487  0.666694  1
  Se  Se87  1  0.339160  0.510663  0.968295  1
  Se  Se88  1  0.666733  0.495165  0.865576  1
  Se  Se89  1  0.849912  0.809285  0.749028  1
  Se  Se90  1  0.698242  0.001165  0.833737  1
  Se  Se91  1  0.849431  0.809919  0.916538  1
