# generated using pymatgen
data_Li6Fe5O12
_symmetry_space_group_name_H-M   'P 1'
_cell_length_a   5.12639624
_cell_length_b   8.83470919
_cell_length_c   9.90607946
_cell_angle_alpha   90.70985846
_cell_angle_beta   100.02990413
_cell_angle_gamma   89.59254062
_symmetry_Int_Tables_number   1
_chemical_formula_structural   Li6Fe5O12
_chemical_formula_sum   'Li12 Fe10 O24'
_cell_volume   441.75232000
_cell_formula_units_Z   2
loop_
 _symmetry_equiv_pos_site_id
 _symmetry_equiv_pos_as_xyz
  1  'x, y, z'
loop_
 _atom_site_type_symbol
 _atom_site_label
 _atom_site_symmetry_multiplicity
 _atom_site_fract_x
 _atom_site_fract_y
 _atom_site_fract_z
 _atom_site_occupancy
  Li  Li1  1  0.241231  0.740700  0.002296  1
  Li  Li2  1  0.258200  0.420160  0.000136  1
  Li  Li3  1  0.245130  0.913841  0.493422  1
  Li  Li4  1  0.255335  0.245599  0.494647  1
  Li  Li5  1  0.250854  0.589757  0.495058  1
  Li  Li6  1  0.250095  0.087419  0.001325  1
  Li  Li7  1  0.746910  0.898025  0.009127  1
  Li  Li8  1  0.752222  0.257686  0.005226  1
  Li  Li9  1  0.502035  0.245717  0.254110  1
  Li  Li10  1  0.749962  0.759996  0.498735  1
  Li  Li11  1  0.749028  0.400830  0.497423  1
  Li  Li12  1  0.998296  0.747140  0.245537  1
  Fe  Fe13  1  0.993735  0.588031  0.749362  1
  Fe  Fe14  1  0.506295  0.085425  0.750156  1
  Fe  Fe15  1  0.499896  0.750889  0.755700  1
  Fe  Fe16  1  -0.000644  0.250289  0.745649  1
  Fe  Fe17  1  0.497772  0.418994  0.753113  1
  Fe  Fe18  1  0.996619  0.919222  0.746196  1
  Fe  Fe19  1  0.009109  0.415233  0.249740  1
  Fe  Fe20  1  0.496653  0.916086  0.252026  1
  Fe  Fe21  1  0.511900  0.580513  0.252978  1
  Fe  Fe22  1  0.991370  0.081391  0.246005  1
  O  O23  1  0.132987  0.094843  0.641944  1
  O  O24  1  0.122555  0.751291  0.631179  1
  O  O25  1  0.121862  0.413165  0.636111  1
  O  O26  1  0.370870  0.921210  0.864749  1
  O  O27  1  0.377294  0.253534  0.868921  1
  O  O28  1  0.106655  0.237913  0.135645  1
  O  O29  1  0.355611  0.585094  0.860700  1
  O  O30  1  0.131589  0.932234  0.134565  1
  O  O31  1  0.165738  0.566167  0.143804  1
  O  O32  1  0.339816  0.066358  0.355693  1
  O  O33  1  0.347498  0.421725  0.366015  1
  O  O34  1  0.399432  0.747121  0.364883  1
  O  O35  1  0.624716  0.581951  0.640114  1
  O  O36  1  0.622554  0.255973  0.638363  1
  O  O37  1  0.620924  0.912886  0.639379  1
  O  O38  1  0.594325  0.763367  0.140815  1
  O  O39  1  0.884591  0.405255  0.857427  1
  O  O40  1  0.877586  0.756619  0.862402  1
  O  O41  1  0.880101  0.091088  0.860034  1
  O  O42  1  0.648790  0.075372  0.138443  1
  O  O43  1  0.652474  0.424961  0.145638  1
  O  O44  1  0.868695  0.931377  0.354067  1
  O  O45  1  0.849133  0.574159  0.364792  1
  O  O46  1  0.902195  0.249939  0.356357  1
