# generated using pymatgen
data_Li5FeO4
_symmetry_space_group_name_H-M   'P 1'
_cell_length_a   5.62089375
_cell_length_b   6.82796593
_cell_length_c   11.03082240
_cell_angle_alpha   90.51784377
_cell_angle_beta   77.51323636
_cell_angle_gamma   90.36427666
_symmetry_Int_Tables_number   1
_chemical_formula_structural   Li5FeO4
_chemical_formula_sum   'Li20 Fe4 O16'
_cell_volume   413.31979119
_cell_formula_units_Z   4
loop_
 _symmetry_equiv_pos_site_id
 _symmetry_equiv_pos_as_xyz
  1  'x, y, z'
loop_
 _atom_site_type_symbol
 _atom_site_label
 _atom_site_symmetry_multiplicity
 _atom_site_fract_x
 _atom_site_fract_y
 _atom_site_fract_z
 _atom_site_occupancy
  Li  Li1  1  0.102389  0.246030  0.303340  1
  Li  Li2  1  0.022116  0.255583  0.654108  1
  Li  Li3  1  0.099019  0.980193  0.800058  1
  Li  Li4  1  0.105145  0.529338  0.804874  1
  Li  Li5  1  0.259958  0.979742  0.084243  1
  Li  Li6  1  0.313083  0.534910  0.062643  1
  Li  Li7  1  0.193560  0.021957  0.443726  1
  Li  Li8  1  0.382464  0.750395  0.209509  1
  Li  Li9  1  0.508102  0.246385  0.168157  1
  Li  Li10  1  0.506113  0.516178  0.338129  1
  Li  Li11  1  0.607146  0.965947  0.303432  1
  Li  Li12  1  0.482928  0.751454  0.821153  1
  Li  Li13  1  0.550676  0.260698  0.769452  1
  Li  Li14  1  0.784371  0.975146  0.573896  1
  Li  Li15  1  0.673524  0.035205  0.936702  1
  Li  Li16  1  0.914286  0.470093  0.192673  1
  Li  Li17  1  0.817127  0.523213  0.558276  1
  Li  Li18  1  0.694330  0.469279  0.932484  1
  Li  Li19  1  0.988352  0.743547  0.346531  1
  Li  Li20  1  0.888332  0.747340  0.704002  1
  Fe  Fe21  1  0.170211  0.253131  0.950083  1
  Fe  Fe22  1  0.675402  0.242062  0.442054  1
  Fe  Fe23  1  0.819838  0.760546  0.063760  1
  Fe  Fe24  1  0.323776  0.738372  0.565854  1
  O  O25  1  0.088847  0.733720  0.142448  1
  O  O26  1  0.165108  0.270750  0.121999  1
  O  O27  1  0.110346  0.961813  0.624417  1
  O  O28  1  0.104666  0.536860  0.635247  1
  O  O29  1  0.351174  0.763956  0.385381  1
  O  O30  1  0.414832  0.226014  0.354539  1
  O  O31  1  0.359040  0.027534  0.889976  1
  O  O32  1  0.374003  0.473533  0.885352  1
  O  O33  1  0.620113  0.531984  0.124166  1
  O  O34  1  0.594384  0.965742  0.121212  1
  O  O35  1  0.603093  0.745165  0.636871  1
  O  O36  1  0.700926  0.251700  0.606605  1
  O  O37  1  0.842052  0.473455  0.370838  1
  O  O38  1  0.880659  0.021127  0.384575  1
  O  O39  1  0.853640  0.752783  0.885897  1
  O  O40  1  0.905311  0.249734  0.866715  1
