# generated using pymatgen
data_LiMg
_symmetry_space_group_name_H-M   'P 1'
_cell_length_a   11.23264892
_cell_length_b   3.14749273
_cell_length_c   7.42096286
_cell_angle_alpha   90.00000000
_cell_angle_beta   106.88112898
_cell_angle_gamma   90.00000000
_symmetry_Int_Tables_number   1
_chemical_formula_structural   LiMg
_chemical_formula_sum   'Li6 Mg6'
_cell_volume   251.06024279
_cell_formula_units_Z   6
loop_
 _symmetry_equiv_pos_site_id
 _symmetry_equiv_pos_as_xyz
  1  'x, y, z'
loop_
 _atom_site_type_symbol
 _atom_site_label
 _atom_site_symmetry_multiplicity
 _atom_site_fract_x
 _atom_site_fract_y
 _atom_site_fract_z
 _atom_site_occupancy
  Li  Li1  1  0.388488  -0.000000  0.277047  1
  Li  Li2  1  0.167235  0.500000  0.334627  1
  Li  Li3  1  0.054184  0.000000  0.608419  1
  Li  Li4  1  0.888488  0.500000  0.277047  1
  Li  Li5  1  0.667235  -0.000000  0.334627  1
  Li  Li6  1  0.554184  0.500000  0.608419  1
  Mg  Mg7  1  0.002496  -0.000000  0.008875  1
  Mg  Mg8  1  0.333179  -0.000000  0.660880  1
  Mg  Mg9  1  0.221086  0.500000  0.943484  1
  Mg  Mg10  1  0.502496  0.500000  0.008875  1
  Mg  Mg11  1  0.833179  0.500000  0.660880  1
  Mg  Mg12  1  0.721086  0.000000  0.943484  1
