# generated using pymatgen
data_Li5GaO2
_symmetry_space_group_name_H-M   'P 1'
_cell_length_a   7.08664816
_cell_length_b   7.08664816
_cell_length_c   8.88746155
_cell_angle_alpha   90.00000000
_cell_angle_beta   90.00000000
_cell_angle_gamma   90.00000000
_symmetry_Int_Tables_number   1
_chemical_formula_structural   Li5GaO2
_chemical_formula_sum   'Li20 Ga4 O8'
_cell_volume   446.33349282
_cell_formula_units_Z   4
loop_
 _symmetry_equiv_pos_site_id
 _symmetry_equiv_pos_as_xyz
  1  'x, y, z'
loop_
 _atom_site_type_symbol
 _atom_site_label
 _atom_site_symmetry_multiplicity
 _atom_site_fract_x
 _atom_site_fract_y
 _atom_site_fract_z
 _atom_site_occupancy
  Li  Li1  1  0.141758  0.731748  0.787032  1
  Li  Li2  1  0.909296  0.000000  0.750000  1
  Li  Li3  1  0.858242  0.731748  0.212968  1
  Li  Li4  1  0.268252  0.858242  0.462968  1
  Li  Li5  1  0.354723  0.000000  0.750000  1
  Li  Li6  1  0.500000  0.810724  0.000000  1
  Li  Li7  1  0.090704  0.000000  0.250000  1
  Li  Li8  1  0.189276  0.500000  0.250000  1
  Li  Li9  1  0.268252  0.141758  0.037032  1
  Li  Li10  1  0.645277  0.000000  0.250000  1
  Li  Li11  1  0.141758  0.268252  0.712968  1
  Li  Li12  1  0.000000  0.354723  0.000000  1
  Li  Li13  1  0.000000  0.909296  0.000000  1
  Li  Li14  1  0.500000  0.189276  0.500000  1
  Li  Li15  1  0.858242  0.268252  0.287032  1
  Li  Li16  1  0.000000  0.090704  0.500000  1
  Li  Li17  1  0.000000  0.645277  0.500000  1
  Li  Li18  1  0.731748  0.141758  0.962968  1
  Li  Li19  1  0.810724  0.500000  0.750000  1
  Li  Li20  1  0.731748  0.858242  0.537032  1
  Ga  Ga21  1  0.422594  0.500000  0.750000  1
  Ga  Ga22  1  0.500000  0.577406  0.500000  1
  Ga  Ga23  1  0.577406  0.500000  0.250000  1
  Ga  Ga24  1  0.500000  0.422594  0.000000  1
  O  O25  1  0.086187  0.247626  0.178612  1
  O  O26  1  0.913813  0.752374  0.678612  1
  O  O27  1  0.086187  0.752374  0.321388  1
  O  O28  1  0.752374  0.913813  0.071388  1
  O  O29  1  0.913813  0.247626  0.821388  1
  O  O30  1  0.247626  0.086187  0.571388  1
  O  O31  1  0.752374  0.086187  0.428612  1
  O  O32  1  0.247626  0.913813  0.928612  1
