# generated using pymatgen
data_LiBi3O5
_symmetry_space_group_name_H-M   'P 1'
_cell_length_a   8.02631405
_cell_length_b   6.44207327
_cell_length_c   10.16224943
_cell_angle_alpha   90.00000000
_cell_angle_beta   89.77000072
_cell_angle_gamma   90.00000000
_symmetry_Int_Tables_number   1
_chemical_formula_structural   LiBi3O5
_chemical_formula_sum   'Li4 Bi12 O20'
_cell_volume   525.44608408
_cell_formula_units_Z   4
loop_
 _symmetry_equiv_pos_site_id
 _symmetry_equiv_pos_as_xyz
  1  'x, y, z'
loop_
 _atom_site_type_symbol
 _atom_site_label
 _atom_site_symmetry_multiplicity
 _atom_site_fract_x
 _atom_site_fract_y
 _atom_site_fract_z
 _atom_site_occupancy
  Li  Li1  1  0.249728  0.302364  0.609367  1
  Li  Li2  1  0.249728  0.197636  0.109367  1
  Li  Li3  1  0.750272  0.802364  0.890633  1
  Li  Li4  1  0.750272  0.697636  0.390633  1
  Bi  Bi5  1  0.049772  0.054659  0.822673  1
  Bi  Bi6  1  0.049772  0.445341  0.322673  1
  Bi  Bi7  1  0.251187  0.609139  0.971370  1
  Bi  Bi8  1  0.251187  0.890861  0.471370  1
  Bi  Bi9  1  0.449631  0.058099  0.823530  1
  Bi  Bi10  1  0.449631  0.441901  0.323530  1
  Bi  Bi11  1  0.550369  0.558099  0.676470  1
  Bi  Bi12  1  0.550369  0.941901  0.176470  1
  Bi  Bi13  1  0.748813  0.109139  0.528630  1
  Bi  Bi14  1  0.748813  0.390861  0.028630  1
  Bi  Bi15  1  0.950228  0.554659  0.677327  1
  Bi  Bi16  1  0.950228  0.945341  0.177327  1
  O  O17  1  0.012789  0.186987  0.611450  1
  O  O18  1  0.012789  0.313013  0.111450  1
  O  O19  1  0.249759  0.315009  0.809424  1
  O  O20  1  0.249266  0.534353  0.486643  1
  O  O21  1  0.249759  0.184991  0.309424  1
  O  O22  1  0.249266  0.965647  0.986643  1
  O  O23  1  0.252285  0.877425  0.720010  1
  O  O24  1  0.252285  0.622575  0.220010  1
  O  O25  1  0.486240  0.189878  0.608405  1
  O  O26  1  0.486240  0.310122  0.108405  1
  O  O27  1  0.513760  0.689878  0.891595  1
  O  O28  1  0.513760  0.810122  0.391595  1
  O  O29  1  0.747715  0.377425  0.779990  1
  O  O30  1  0.747715  0.122575  0.279990  1
  O  O31  1  0.750734  0.034353  0.013357  1
  O  O32  1  0.750241  0.815009  0.690576  1
  O  O33  1  0.750734  0.465647  0.513357  1
  O  O34  1  0.750241  0.684991  0.190576  1
  O  O35  1  0.987211  0.686987  0.888550  1
  O  O36  1  0.987211  0.813013  0.388550  1
