# generated using pymatgen
data_K6Sn25
_symmetry_space_group_name_H-M   'P 1'
_cell_length_a   16.61228090
_cell_length_b   16.61228090
_cell_length_c   16.61228090
_cell_angle_alpha   90.00000000
_cell_angle_beta   90.00000000
_cell_angle_gamma   90.00000000
_symmetry_Int_Tables_number   1
_chemical_formula_structural   K6Sn25
_chemical_formula_sum   'K24 Sn100'
_cell_volume   4584.45588713
_cell_formula_units_Z   4
loop_
 _symmetry_equiv_pos_site_id
 _symmetry_equiv_pos_as_xyz
  1  'x, y, z'
loop_
 _atom_site_type_symbol
 _atom_site_label
 _atom_site_symmetry_multiplicity
 _atom_site_fract_x
 _atom_site_fract_y
 _atom_site_fract_z
 _atom_site_occupancy
  K  K1  1  0.625000  0.189652  0.060348  1
  K  K2  1  0.060348  0.625000  0.189652  1
  K  K3  1  0.875000  0.810348  0.560348  1
  K  K4  1  0.810348  0.560348  0.875000  1
  K  K5  1  0.189652  0.060348  0.625000  1
  K  K6  1  0.125000  0.875000  0.375000  1
  K  K7  1  0.190386  0.690386  0.809614  1
  K  K8  1  0.440386  0.559614  0.059614  1
  K  K9  1  0.059614  0.440386  0.559614  1
  K  K10  1  0.375000  0.125000  0.875000  1
  K  K11  1  0.439652  0.375000  0.689652  1
  K  K12  1  0.375000  0.689652  0.439652  1
  K  K13  1  0.559614  0.059614  0.440386  1
  K  K14  1  0.939652  0.125000  0.310348  1
  K  K15  1  0.940386  0.940386  0.940386  1
  K  K16  1  0.875000  0.375000  0.125000  1
  K  K17  1  0.809614  0.190386  0.690386  1
  K  K18  1  0.560348  0.875000  0.810348  1
  K  K19  1  0.690386  0.809614  0.190386  1
  K  K20  1  0.625000  0.625000  0.625000  1
  K  K21  1  0.689652  0.439652  0.375000  1
  K  K22  1  0.309614  0.309614  0.309614  1
  K  K23  1  0.310348  0.939652  0.125000  1
  K  K24  1  0.125000  0.310348  0.939652  1
  Sn  Sn25  1  0.219795  0.280205  0.719795  1
  Sn  Sn26  1  0.294027  0.546291  0.247568  1
  Sn  Sn27  1  0.796291  0.044027  0.502432  1
  Sn  Sn28  1  0.530205  0.969795  0.030205  1
  Sn  Sn29  1  0.760846  0.932742  0.374395  1
  Sn  Sn30  1  0.339192  0.902150  0.833289  1
  Sn  Sn31  1  0.160808  0.097850  0.333289  1
  Sn  Sn32  1  0.280205  0.719795  0.219795  1
  Sn  Sn33  1  0.916711  0.152150  0.089192  1
  Sn  Sn34  1  0.719795  0.219795  0.280205  1
  Sn  Sn35  1  0.875000  0.170244  0.920244  1
  Sn  Sn36  1  0.089192  0.916711  0.152150  1
  Sn  Sn37  1  0.839192  0.597850  0.166711  1
  Sn  Sn38  1  0.203709  0.544027  0.997568  1
  Sn  Sn39  1  0.847850  0.589192  0.583289  1
  Sn  Sn40  1  0.652150  0.410808  0.083289  1
  Sn  Sn41  1  0.546291  0.247568  0.294027  1
  Sn  Sn42  1  0.375000  0.329756  0.079756  1
  Sn  Sn43  1  0.175599  0.175599  0.175599  1
  Sn  Sn44  1  0.747568  0.205973  0.453709  1
  Sn  Sn45  1  0.002432  0.703709  0.955973  1
  Sn  Sn46  1  0.420244  0.625000  0.829756  1
  Sn  Sn47  1  0.682742  0.989154  0.624395  1
  Sn  Sn48  1  0.402150  0.666711  0.660808  1
  Sn  Sn49  1  0.624395  0.682742  0.989154  1
  Sn  Sn50  1  0.046291  0.252432  0.705973  1
  Sn  Sn51  1  0.497568  0.296291  0.455973  1
  Sn  Sn52  1  0.902150  0.833289  0.339192  1
  Sn  Sn53  1  0.239154  0.432742  0.125605  1
  Sn  Sn54  1  0.030205  0.530205  0.969795  1
  Sn  Sn55  1  0.079756  0.375000  0.329756  1
  Sn  Sn56  1  0.252432  0.705973  0.046291  1
  Sn  Sn57  1  0.453709  0.747568  0.205973  1
  Sn  Sn58  1  0.010846  0.124395  0.817258  1
  Sn  Sn59  1  0.953709  0.752432  0.794027  1
  Sn  Sn60  1  0.752432  0.794027  0.953709  1
  Sn  Sn61  1  0.510846  0.375605  0.182742  1
  Sn  Sn62  1  0.347850  0.910808  0.416711  1
  Sn  Sn63  1  0.416711  0.347850  0.910808  1
  Sn  Sn64  1  0.247568  0.294027  0.546291  1
  Sn  Sn65  1  0.260846  0.567258  0.625605  1
  Sn  Sn66  1  0.920244  0.875000  0.170244  1
  Sn  Sn67  1  0.875605  0.317258  0.489154  1
  Sn  Sn68  1  0.083289  0.652150  0.410808  1
  Sn  Sn69  1  0.567258  0.625605  0.260846  1
  Sn  Sn70  1  0.833289  0.339192  0.902150  1
  Sn  Sn71  1  0.170244  0.920244  0.875000  1
  Sn  Sn72  1  0.166711  0.839192  0.597850  1
  Sn  Sn73  1  0.074401  0.074401  0.074401  1
  Sn  Sn74  1  0.375605  0.182742  0.510846  1
  Sn  Sn75  1  0.182742  0.510846  0.375605  1
  Sn  Sn76  1  0.574401  0.425599  0.925599  1
  Sn  Sn77  1  0.703709  0.955973  0.002432  1
  Sn  Sn78  1  0.425599  0.925599  0.574401  1
  Sn  Sn79  1  0.469795  0.469795  0.469795  1
  Sn  Sn80  1  0.955973  0.002432  0.703709  1
  Sn  Sn81  1  0.125000  0.670244  0.579756  1
  Sn  Sn82  1  0.579756  0.125000  0.670244  1
  Sn  Sn83  1  0.705973  0.046291  0.252432  1
  Sn  Sn84  1  0.910808  0.416711  0.347850  1
  Sn  Sn85  1  0.997568  0.203709  0.544027  1
  Sn  Sn86  1  0.829756  0.420244  0.625000  1
  Sn  Sn87  1  0.670244  0.579756  0.125000  1
  Sn  Sn88  1  0.932742  0.374395  0.760846  1
  Sn  Sn89  1  0.544027  0.997568  0.203709  1
  Sn  Sn90  1  0.874395  0.739154  0.067258  1
  Sn  Sn91  1  0.489154  0.875605  0.317258  1
  Sn  Sn92  1  0.125605  0.239154  0.432742  1
  Sn  Sn93  1  0.625605  0.260846  0.567258  1
  Sn  Sn94  1  0.660808  0.402150  0.666711  1
  Sn  Sn95  1  0.044027  0.502432  0.796291  1
  Sn  Sn96  1  0.675599  0.324401  0.824401  1
  Sn  Sn97  1  0.925599  0.574401  0.425599  1
  Sn  Sn98  1  0.739154  0.067258  0.874395  1
  Sn  Sn99  1  0.666711  0.660808  0.402150  1
  Sn  Sn100  1  0.780205  0.780205  0.780205  1
  Sn  Sn101  1  0.455973  0.497568  0.296291  1
  Sn  Sn102  1  0.152150  0.089192  0.916711  1
  Sn  Sn103  1  0.824401  0.675599  0.324401  1
  Sn  Sn104  1  0.589192  0.583289  0.847850  1
  Sn  Sn105  1  0.374395  0.760846  0.932742  1
  Sn  Sn106  1  0.097850  0.333289  0.160808  1
  Sn  Sn107  1  0.597850  0.166711  0.839192  1
  Sn  Sn108  1  0.969795  0.030205  0.530205  1
  Sn  Sn109  1  0.329756  0.079756  0.375000  1
  Sn  Sn110  1  0.502432  0.796291  0.044027  1
  Sn  Sn111  1  0.410808  0.083289  0.652150  1
  Sn  Sn112  1  0.583289  0.847850  0.589192  1
  Sn  Sn113  1  0.432742  0.125605  0.239154  1
  Sn  Sn114  1  0.989154  0.624395  0.682742  1
  Sn  Sn115  1  0.317258  0.489154  0.875605  1
  Sn  Sn116  1  0.296291  0.455973  0.497568  1
  Sn  Sn117  1  0.324401  0.824401  0.675599  1
  Sn  Sn118  1  0.124395  0.817258  0.010846  1
  Sn  Sn119  1  0.794027  0.953709  0.752432  1
  Sn  Sn120  1  0.333289  0.160808  0.097850  1
  Sn  Sn121  1  0.067258  0.874395  0.739154  1
  Sn  Sn122  1  0.625000  0.829756  0.420244  1
  Sn  Sn123  1  0.817258  0.010846  0.124395  1
  Sn  Sn124  1  0.205973  0.453709  0.747568  1
