# generated using pymatgen
data_LiGa5O8
_symmetry_space_group_name_H-M   'P 1'
_cell_length_a   8.33332410
_cell_length_b   8.33332410
_cell_length_c   8.29703471
_cell_angle_alpha   90.00000000
_cell_angle_beta   90.00000000
_cell_angle_gamma   90.98711100
_symmetry_Int_Tables_number   1
_chemical_formula_structural   LiGa5O8
_chemical_formula_sum   'Li4 Ga20 O32'
_cell_volume   576.09618150
_cell_formula_units_Z   4
loop_
 _symmetry_equiv_pos_site_id
 _symmetry_equiv_pos_as_xyz
  1  'x, y, z'
loop_
 _atom_site_type_symbol
 _atom_site_label
 _atom_site_symmetry_multiplicity
 _atom_site_fract_x
 _atom_site_fract_y
 _atom_site_fract_z
 _atom_site_occupancy
  Ga  Ga1  1  0.003395  0.502910  0.509421  1
  Ga  Ga2  1  0.124637  0.624871  0.125257  1
  Ga  Ga3  1  0.134562  0.884562  0.375000  1
  Ga  Ga4  1  0.115368  0.365150  0.875212  1
  Ga  Ga5  1  0.246629  0.746653  0.741123  1
  Ga  Ga6  1  0.253371  0.253347  0.241123  1
  Ga  Ga7  1  0.365438  0.115438  0.875000  1
  Ga  Ga8  1  0.384632  0.634850  0.375212  1
  Ga  Ga9  1  0.375363  0.375129  0.625257  1
  Ga  Ga10  1  0.496605  0.497090  0.009421  1
  Ga  Ga11  1  0.503347  0.003371  0.508877  1
  Ga  Ga12  1  0.615150  0.865368  0.874788  1
  Ga  Ga13  1  0.625129  0.125363  0.124743  1
  Ga  Ga14  1  0.634974  0.384974  0.375000  1
  Ga  Ga15  1  0.752910  0.753395  0.240579  1
  Ga  Ga16  1  0.747090  0.246605  0.740579  1
  Ga  Ga17  1  0.865026  0.615026  0.875000  1
  Ga  Ga18  1  0.874871  0.874637  0.624743  1
  Ga  Ga19  1  0.884850  0.134632  0.374788  1
  Ga  Ga20  1  0.996653  0.996629  0.008877  1
  Li  Li21  1  0.125469  0.124531  0.625000  1
  Li  Li22  1  0.374531  0.875469  0.125000  1
  Li  Li23  1  0.624993  0.625007  0.625000  1
  Li  Li24  1  0.875007  0.374993  0.125000  1
  O  O25  1  0.115874  0.615897  0.882387  1
  O  O26  1  0.114045  0.876045  0.613315  1
  O  O27  1  0.120475  0.120235  0.369862  1
  O  O28  1  0.123583  0.385732  0.113543  1
  O  O29  1  0.129765  0.129525  0.880138  1
  O  O30  1  0.126045  0.864045  0.136685  1
  O  O31  1  0.133884  0.633834  0.368005  1
  O  O32  1  0.136081  0.373466  0.636915  1
  O  O33  1  0.363919  0.626534  0.136915  1
  O  O34  1  0.366116  0.366166  0.868005  1
  O  O35  1  0.373955  0.135955  0.636685  1
  O  O36  1  0.370235  0.870475  0.380138  1
  O  O37  1  0.376417  0.614268  0.613542  1
  O  O38  1  0.379525  0.879765  0.869862  1
  O  O39  1  0.385955  0.123955  0.113315  1
  O  O40  1  0.384126  0.384103  0.382387  1
  O  O41  1  0.623466  0.886081  0.113085  1
  O  O42  1  0.620279  0.620571  0.369864  1
  O  O43  1  0.614532  0.376493  0.613295  1
  O  O44  1  0.616166  0.116116  0.881995  1
  O  O45  1  0.626493  0.364532  0.136705  1
  O  O46  1  0.629429  0.629721  0.880136  1
  O  O47  1  0.635732  0.873583  0.636458  1
  O  O48  1  0.634103  0.134126  0.367613  1
  O  O49  1  0.865897  0.865874  0.867613  1
  O  O50  1  0.864268  0.126417  0.136458  1
  O  O51  1  0.870571  0.370279  0.380136  1
  O  O52  1  0.873507  0.635468  0.636705  1
  O  O53  1  0.883834  0.883884  0.381995  1
  O  O54  1  0.885468  0.623507  0.113295  1
  O  O55  1  0.879721  0.379429  0.869864  1
  O  O56  1  0.876534  0.113919  0.613085  1
