# generated using pymatgen
data_Na3Re
_symmetry_space_group_name_H-M   'P 1'
_cell_length_a   6.61861166
_cell_length_b   6.61861191
_cell_length_c   5.47343096
_cell_angle_alpha   90.00000000
_cell_angle_beta   90.00000000
_cell_angle_gamma   119.99999877
_symmetry_Int_Tables_number   1
_chemical_formula_structural   Na3Re
_chemical_formula_sum   'Na6 Re2'
_cell_volume   207.64625261
_cell_formula_units_Z   2
loop_
 _symmetry_equiv_pos_site_id
 _symmetry_equiv_pos_as_xyz
  1  'x, y, z'
loop_
 _atom_site_type_symbol
 _atom_site_label
 _atom_site_symmetry_multiplicity
 _atom_site_fract_x
 _atom_site_fract_y
 _atom_site_fract_z
 _atom_site_occupancy
  Na  Na1  1  0.173947  0.347895  0.250000  1
  Na  Na2  1  0.652106  0.826052  0.250000  1
  Na  Na3  1  0.173946  0.826052  0.250000  1
  Na  Na4  1  0.826052  0.652105  0.750000  1
  Na  Na5  1  0.347893  0.173947  0.750000  1
  Na  Na6  1  0.826052  0.173947  0.750000  1
  Re  Re7  1  0.333334  0.666668  0.750000  1
  Re  Re8  1  0.666667  0.333332  0.250000  1
