# generated using pymatgen
data_Na3Nd
_symmetry_space_group_name_H-M   'P 1'
_cell_length_a   7.38393031
_cell_length_b   7.38392915
_cell_length_c   5.87530788
_cell_angle_alpha   90.00000000
_cell_angle_beta   90.00000000
_cell_angle_gamma   119.99999482
_symmetry_Int_Tables_number   1
_chemical_formula_structural   Na3Nd
_chemical_formula_sum   'Na6 Nd2'
_cell_volume   277.41912282
_cell_formula_units_Z   2
loop_
 _symmetry_equiv_pos_site_id
 _symmetry_equiv_pos_as_xyz
  1  'x, y, z'
loop_
 _atom_site_type_symbol
 _atom_site_label
 _atom_site_symmetry_multiplicity
 _atom_site_fract_x
 _atom_site_fract_y
 _atom_site_fract_z
 _atom_site_occupancy
  Na  Na1  1  0.838626  0.161373  0.749998  1
  Na  Na2  1  0.322749  0.161373  0.749998  1
  Na  Na3  1  0.161374  0.322749  0.249999  1
  Na  Na4  1  0.838627  0.677254  0.749998  1
  Na  Na5  1  0.161374  0.838625  0.249999  1
  Na  Na6  1  0.677251  0.838625  0.249999  1
  Nd  Nd7  1  0.333333  0.666667  0.749998  1
  Nd  Nd8  1  0.666666  0.333332  0.249999  1
