# generated using pymatgen
data_Li2Ge2O5
_symmetry_space_group_name_H-M   'P 1'
_cell_length_a   5.04363269
_cell_length_b   6.04739878
_cell_length_c   8.30791734
_cell_angle_alpha   111.34322160
_cell_angle_beta   89.99906025
_cell_angle_gamma   90.00258194
_symmetry_Int_Tables_number   1
_chemical_formula_structural   Li2Ge2O5
_chemical_formula_sum   'Li4 Ge4 O10'
_cell_volume   236.01975621
_cell_formula_units_Z   2
loop_
 _symmetry_equiv_pos_site_id
 _symmetry_equiv_pos_as_xyz
  1  'x, y, z'
loop_
 _atom_site_type_symbol
 _atom_site_label
 _atom_site_symmetry_multiplicity
 _atom_site_fract_x
 _atom_site_fract_y
 _atom_site_fract_z
 _atom_site_occupancy
  Li  Li1  1  0.605529  0.705314  0.112255  1
  Li  Li2  1  0.105529  0.593058  0.887745  1
  Li  Li3  1  0.105568  0.403090  0.112201  1
  Li  Li4  1  0.605568  0.290890  0.887799  1
  O  O5  1  0.493743  0.403948  0.134218  1
  O  O6  1  0.993743  0.269730  0.865782  1
  O  O7  1  0.505312  0.498133  0.500000  1
  O  O8  1  0.493687  0.592314  0.865800  1
  O  O9  1  0.005312  0.998133  0.500000  1
  O  O10  1  0.949422  0.751778  0.730587  1
  O  O11  1  0.449422  0.021191  0.269413  1
  O  O12  1  0.449382  0.975023  0.730609  1
  O  O13  1  0.949382  0.244413  0.269391  1
  O  O14  1  0.993687  0.726513  0.134200  1
  Ge  Ge15  1  0.098684  0.984383  0.292388  1
  Ge  Ge16  1  0.098672  0.011831  0.707571  1
  Ge  Ge17  1  0.598672  0.304261  0.292429  1
  Ge  Ge18  1  0.598684  0.691995  0.707612  1
