# generated using pymatgen
data_Na2S
_symmetry_space_group_name_H-M   'P 1'
_cell_length_a   4.66353381
_cell_length_b   4.66353382
_cell_length_c   6.63598039
_cell_angle_alpha   90.00000000
_cell_angle_beta   90.00000000
_cell_angle_gamma   120.00000000
_symmetry_Int_Tables_number   1
_chemical_formula_structural   Na2S
_chemical_formula_sum   'Na4 S2'
_cell_volume   124.98732866
_cell_formula_units_Z   2
loop_
 _symmetry_equiv_pos_site_id
 _symmetry_equiv_pos_as_xyz
  1  'x, y, z'
loop_
 _atom_site_type_symbol
 _atom_site_label
 _atom_site_symmetry_multiplicity
 _atom_site_fract_x
 _atom_site_fract_y
 _atom_site_fract_z
 _atom_site_occupancy
  Na  Na1  1  0.666667  0.333333  0.250000  1
  Na  Na2  1  0.333333  0.666667  0.750000  1
  Na  Na3  1  0.000000  0.000000  0.000000  1
  Na  Na4  1  0.000000  0.000000  0.500000  1
  S  S5  1  0.666667  0.333333  0.750000  1
  S  S6  1  0.333333  0.666667  0.250000  1
