# generated using pymatgen
data_Li5BiO4
_symmetry_space_group_name_H-M   'P 1'
_cell_length_a   13.65635207
_cell_length_b   13.65635207
_cell_length_c   4.87800496
_cell_angle_alpha   90.00000000
_cell_angle_beta   90.00000000
_cell_angle_gamma   90.00000000
_symmetry_Int_Tables_number   1
_chemical_formula_structural   Li5BiO4
_chemical_formula_sum   'Li40 Bi8 O32'
_cell_volume   909.72817819
_cell_formula_units_Z   8
loop_
 _symmetry_equiv_pos_site_id
 _symmetry_equiv_pos_as_xyz
  1  'x, y, z'
loop_
 _atom_site_type_symbol
 _atom_site_label
 _atom_site_symmetry_multiplicity
 _atom_site_fract_x
 _atom_site_fract_y
 _atom_site_fract_z
 _atom_site_occupancy
  Li  Li1  1  0.990304  0.009696  0.250000  1
  Li  Li2  1  0.009696  0.990304  0.750000  1
  Li  Li3  1  0.990304  0.490304  0.250000  1
  Li  Li4  1  0.009696  0.509696  0.750000  1
  Li  Li5  1  0.105538  0.360244  0.822635  1
  Li  Li6  1  0.105538  0.139756  0.822635  1
  Li  Li7  1  0.121938  0.621938  0.250000  1
  Li  Li8  1  0.121938  0.878062  0.250000  1
  Li  Li9  1  0.139756  0.105538  0.322635  1
  Li  Li10  1  0.139756  0.394462  0.322635  1
  Li  Li11  1  0.250000  0.250000  0.344101  1
  Li  Li12  1  0.250000  0.750000  0.750000  1
  Li  Li13  1  0.250000  0.750000  0.250000  1
  Li  Li14  1  0.250000  0.250000  0.844101  1
  Li  Li15  1  0.360244  0.105538  0.322635  1
  Li  Li16  1  0.360244  0.394462  0.322635  1
  Li  Li17  1  0.378062  0.621938  0.250000  1
  Li  Li18  1  0.378062  0.878062  0.250000  1
  Li  Li19  1  0.394462  0.139756  0.822635  1
  Li  Li20  1  0.394462  0.360244  0.822635  1
  Li  Li21  1  0.509696  0.490304  0.250000  1
  Li  Li22  1  0.490304  0.509696  0.750000  1
  Li  Li23  1  0.509696  0.009696  0.250000  1
  Li  Li24  1  0.490304  0.990304  0.750000  1
  Li  Li25  1  0.605538  0.639756  0.177365  1
  Li  Li26  1  0.605538  0.860244  0.177365  1
  Li  Li27  1  0.621938  0.121938  0.750000  1
  Li  Li28  1  0.621938  0.378062  0.750000  1
  Li  Li29  1  0.639756  0.605538  0.677365  1
  Li  Li30  1  0.639756  0.894462  0.677365  1
  Li  Li31  1  0.750000  0.250000  0.250000  1
  Li  Li32  1  0.750000  0.250000  0.750000  1
  Li  Li33  1  0.750000  0.750000  0.155899  1
  Li  Li34  1  0.750000  0.750000  0.655899  1
  Li  Li35  1  0.860244  0.605538  0.677365  1
  Li  Li36  1  0.860244  0.894462  0.677365  1
  Li  Li37  1  0.878062  0.121938  0.750000  1
  Li  Li38  1  0.878062  0.378062  0.750000  1
  Li  Li39  1  0.894462  0.639756  0.177365  1
  Li  Li40  1  0.894462  0.860244  0.177365  1
  Bi  Bi41  1  0.022571  0.750000  0.698966  1
  Bi  Bi42  1  0.250000  0.522571  0.801034  1
  Bi  Bi43  1  0.250000  0.977429  0.801034  1
  Bi  Bi44  1  0.477429  0.750000  0.698966  1
  Bi  Bi45  1  0.522571  0.250000  0.301034  1
  Bi  Bi46  1  0.750000  0.022571  0.198966  1
  Bi  Bi47  1  0.750000  0.477429  0.198966  1
  Bi  Bi48  1  0.977429  0.250000  0.301034  1
  O  O49  1  0.013916  0.111090  0.531740  1
  O  O50  1  0.013916  0.388910  0.531740  1
  O  O51  1  0.111090  0.013916  0.031740  1
  O  O52  1  0.111090  0.486084  0.031740  1
  O  O53  1  0.130678  0.250000  0.091392  1
  O  O54  1  0.133250  0.750000  0.034495  1
  O  O55  1  0.250000  0.130678  0.591392  1
  O  O56  1  0.250000  0.633250  0.465505  1
  O  O57  1  0.250000  0.866750  0.465505  1
  O  O58  1  0.250000  0.369322  0.591392  1
  O  O59  1  0.366750  0.750000  0.034495  1
  O  O60  1  0.369322  0.250000  0.091392  1
  O  O61  1  0.388910  0.486084  0.031740  1
  O  O62  1  0.388910  0.013916  0.031740  1
  O  O63  1  0.486084  0.111090  0.531740  1
  O  O64  1  0.486084  0.388910  0.531740  1
  O  O65  1  0.513916  0.611090  0.468260  1
  O  O66  1  0.513916  0.888910  0.468260  1
  O  O67  1  0.611090  0.986084  0.968260  1
  O  O68  1  0.611090  0.513916  0.968260  1
  O  O69  1  0.630678  0.750000  0.908608  1
  O  O70  1  0.633250  0.250000  0.965505  1
  O  O71  1  0.750000  0.133250  0.534495  1
  O  O72  1  0.750000  0.366750  0.534495  1
  O  O73  1  0.750000  0.630678  0.408608  1
  O  O74  1  0.750000  0.869322  0.408608  1
  O  O75  1  0.866750  0.250000  0.965505  1
  O  O76  1  0.869322  0.750000  0.908608  1
  O  O77  1  0.888910  0.986084  0.968260  1
  O  O78  1  0.888910  0.513916  0.968260  1
  O  O79  1  0.986084  0.611090  0.468260  1
  O  O80  1  0.986084  0.888910  0.468260  1
