# generated using pymatgen
data_K3Co
_symmetry_space_group_name_H-M   'P 1'
_cell_length_a   8.10597084
_cell_length_b   8.10596992
_cell_length_c   6.30001211
_cell_angle_alpha   90.00000000
_cell_angle_beta   90.00000000
_cell_angle_gamma   119.99999907
_symmetry_Int_Tables_number   1
_chemical_formula_structural   K3Co
_chemical_formula_sum   'K6 Co2'
_cell_volume   358.49412653
_cell_formula_units_Z   2
loop_
 _symmetry_equiv_pos_site_id
 _symmetry_equiv_pos_as_xyz
  1  'x, y, z'
loop_
 _atom_site_type_symbol
 _atom_site_label
 _atom_site_symmetry_multiplicity
 _atom_site_fract_x
 _atom_site_fract_y
 _atom_site_fract_z
 _atom_site_occupancy
  K  K1  1  0.178741  0.357481  0.250000  1
  K  K2  1  0.642520  0.821260  0.250000  1
  K  K3  1  0.178741  0.821260  0.250000  1
  K  K4  1  0.821260  0.642520  0.750001  1
  K  K5  1  0.357482  0.178741  0.750001  1
  K  K6  1  0.821260  0.178741  0.750001  1
  Co  Co7  1  0.333333  0.666667  0.750001  1
  Co  Co8  1  0.666667  0.333333  0.250000  1
