# generated using pymatgen
data_Li2Ge4O9
_symmetry_space_group_name_H-M   'P 1'
_cell_length_a   9.45350634
_cell_length_b   4.69592773
_cell_length_c   16.09819223
_cell_angle_alpha   90.00000000
_cell_angle_beta   90.00000000
_cell_angle_gamma   90.00000000
_symmetry_Int_Tables_number   1
_chemical_formula_structural   Li2Ge4O9
_chemical_formula_sum   'Li8 Ge16 O36'
_cell_volume   714.64676704
_cell_formula_units_Z   4
loop_
 _symmetry_equiv_pos_site_id
 _symmetry_equiv_pos_as_xyz
  1  'x, y, z'
loop_
 _atom_site_type_symbol
 _atom_site_label
 _atom_site_symmetry_multiplicity
 _atom_site_fract_x
 _atom_site_fract_y
 _atom_site_fract_z
 _atom_site_occupancy
  Li  Li1  1  0.466154  0.555576  0.766100  1
  Li  Li2  1  0.966154  0.444424  0.233900  1
  Li  Li3  1  0.966154  0.555576  0.733900  1
  Li  Li4  1  0.466154  0.444424  0.266100  1
  Li  Li5  1  0.273755  0.410513  0.978936  1
  Li  Li6  1  0.773755  0.589487  0.021064  1
  Li  Li7  1  0.773755  0.410513  0.521064  1
  Li  Li8  1  0.273755  0.589487  0.478936  1
  Ge  Ge9  1  0.235598  0.514569  0.655733  1
  Ge  Ge10  1  0.735598  0.485431  0.344267  1
  Ge  Ge11  1  0.735598  0.514569  0.844267  1
  Ge  Ge12  1  0.235598  0.485431  0.155733  1
  Ge  Ge13  1  0.233923  0.010113  0.795786  1
  Ge  Ge14  1  0.733923  0.989887  0.204214  1
  Ge  Ge15  1  0.733923  0.010113  0.704214  1
  Ge  Ge16  1  0.233923  0.989887  0.295786  1
  Ge  Ge17  1  0.525469  0.999039  0.901663  1
  Ge  Ge18  1  0.025469  0.000961  0.098337  1
  Ge  Ge19  1  0.025469  0.999039  0.598337  1
  Ge  Ge20  1  0.525469  0.000961  0.401663  1
  Ge  Ge21  1  0.445172  0.977966  0.094150  1
  Ge  Ge22  1  0.945172  0.022034  0.905850  1
  Ge  Ge23  1  0.945172  0.977966  0.405850  1
  Ge  Ge24  1  0.445172  0.022034  0.594150  1
  O  O25  1  0.070268  0.289820  0.661142  1
  O  O26  1  0.570268  0.710180  0.338858  1
  O  O27  1  0.570268  0.289820  0.838858  1
  O  O28  1  0.070268  0.710180  0.161142  1
  O  O29  1  0.152076  0.742377  0.569008  1
  O  O30  1  0.652076  0.257623  0.430992  1
  O  O31  1  0.652076  0.742377  0.930992  1
  O  O32  1  0.152076  0.257623  0.069008  1
  O  O33  1  0.323709  0.298513  0.570485  1
  O  O34  1  0.823709  0.701487  0.429515  1
  O  O35  1  0.823709  0.298513  0.929515  1
  O  O36  1  0.323709  0.701487  0.070485  1
  O  O37  1  0.397145  0.753282  0.664381  1
  O  O38  1  0.897145  0.246718  0.335619  1
  O  O39  1  0.897145  0.753282  0.835619  1
  O  O40  1  0.397145  0.246718  0.164381  1
  O  O41  1  0.317593  0.289302  0.741809  1
  O  O42  1  0.817593  0.710698  0.258191  1
  O  O43  1  0.817593  0.289302  0.758191  1
  O  O44  1  0.317593  0.710698  0.241809  1
  O  O45  1  0.144871  0.752168  0.736891  1
  O  O46  1  0.644871  0.247832  0.263109  1
  O  O47  1  0.644871  0.752168  0.763109  1
  O  O48  1  0.144871  0.247832  0.236891  1
  O  O49  1  0.371630  0.830349  0.855084  1
  O  O50  1  0.871630  0.169651  0.144916  1
  O  O51  1  0.871630  0.830349  0.644916  1
  O  O52  1  0.371630  0.169651  0.355084  1
  O  O53  1  0.117172  0.155055  0.874661  1
  O  O54  1  0.617172  0.844945  0.125339  1
  O  O55  1  0.617172  0.155055  0.625339  1
  O  O56  1  0.117172  0.844945  0.374661  1
  O  O57  1  0.458914  0.158423  0.995435  1
  O  O58  1  0.958914  0.841577  0.004565  1
  O  O59  1  0.958914  0.158423  0.504565  1
  O  O60  1  0.458914  0.841577  0.495435  1
