# generated using pymatgen
data_Li6Ge2O7
_symmetry_space_group_name_H-M   'P 1'
_cell_length_a   5.37117828
_cell_length_b   8.18242062
_cell_length_c   14.39841758
_cell_angle_alpha   92.99707530
_cell_angle_beta   90.00000000
_cell_angle_gamma   90.00000000
_symmetry_Int_Tables_number   1
_chemical_formula_structural   Li6Ge2O7
_chemical_formula_sum   'Li24 Ge8 O28'
_cell_volume   631.93396830
_cell_formula_units_Z   4
loop_
 _symmetry_equiv_pos_site_id
 _symmetry_equiv_pos_as_xyz
  1  'x, y, z'
loop_
 _atom_site_type_symbol
 _atom_site_label
 _atom_site_symmetry_multiplicity
 _atom_site_fract_x
 _atom_site_fract_y
 _atom_site_fract_z
 _atom_site_occupancy
  Li  Li1  1  0.218884  0.704595  0.305058  1
  Li  Li2  1  0.718884  0.795405  0.194942  1
  Li  Li3  1  0.781116  0.295405  0.694942  1
  Li  Li4  1  0.281116  0.204595  0.805058  1
  Li  Li5  1  0.370198  0.037934  0.384283  1
  Li  Li6  1  0.870198  0.462066  0.115717  1
  Li  Li7  1  0.629802  0.962066  0.615717  1
  Li  Li8  1  0.129802  0.537934  0.884283  1
  Li  Li9  1  0.331851  0.870217  0.743391  1
  Li  Li10  1  0.831851  0.629783  0.756609  1
  Li  Li11  1  0.646980  0.223633  0.484439  1
  Li  Li12  1  0.146980  0.276367  0.015561  1
  Li  Li13  1  0.353020  0.776367  0.515561  1
  Li  Li14  1  0.853020  0.723633  0.984439  1
  Li  Li15  1  0.194148  0.448404  0.457051  1
  Li  Li16  1  0.694148  0.051596  0.042949  1
  Li  Li17  1  0.805852  0.551596  0.542949  1
  Li  Li18  1  0.305852  0.948404  0.957051  1
  Li  Li19  1  0.013252  0.200464  0.379007  1
  Li  Li20  1  0.513252  0.299536  0.120993  1
  Li  Li21  1  0.986748  0.799536  0.620993  1
  Li  Li22  1  0.486748  0.700464  0.879007  1
  Li  Li23  1  0.668149  0.129783  0.256609  1
  Li  Li24  1  0.168149  0.370217  0.243391  1
  O  O25  1  0.272079  0.137701  0.267191  1
  O  O26  1  0.769951  0.542223  0.880201  1
  O  O27  1  0.230049  0.457777  0.119799  1
  O  O28  1  0.730049  0.042223  0.380201  1
  O  O29  1  0.323044  0.353322  0.910892  1
  O  O30  1  0.823044  0.146678  0.589108  1
  O  O31  1  0.772079  0.362299  0.232809  1
  O  O32  1  0.176956  0.853322  0.410892  1
  O  O33  1  0.711984  0.197715  0.815679  1
  O  O34  1  0.211984  0.302285  0.684321  1
  O  O35  1  0.288016  0.802285  0.184321  1
  O  O36  1  0.788016  0.697715  0.315679  1
  O  O37  1  0.727921  0.862299  0.732809  1
  O  O38  1  0.227921  0.637701  0.767191  1
  O  O39  1  0.278214  0.214751  0.482699  1
  O  O40  1  0.778214  0.285249  0.017301  1
  O  O41  1  0.721786  0.785249  0.517301  1
  O  O42  1  0.221786  0.714751  0.982699  1
  O  O43  1  0.823760  0.408255  0.428360  1
  O  O44  1  0.323760  0.091745  0.071640  1
  O  O45  1  0.176240  0.591745  0.571640  1
  O  O46  1  0.676956  0.646678  0.089108  1
  O  O47  1  0.347484  0.499833  0.340104  1
  O  O48  1  0.847484  0.000167  0.159896  1
  O  O49  1  0.652516  0.500167  0.659896  1
  O  O50  1  0.152516  0.999833  0.840104  1
  O  O51  1  0.269951  0.957777  0.619799  1
  O  O52  1  0.676240  0.908255  0.928360  1
  Ge  Ge53  1  0.850846  0.852414  0.413052  1
  Ge  Ge54  1  0.350846  0.647586  0.086948  1
  Ge  Ge55  1  0.149154  0.147587  0.586948  1
  Ge  Ge56  1  0.649154  0.352413  0.913052  1
  Ge  Ge57  1  0.672437  0.486618  0.330699  1
  Ge  Ge58  1  0.172437  0.013382  0.169301  1
  Ge  Ge59  1  0.327563  0.513382  0.669301  1
  Ge  Ge60  1  0.827563  0.986618  0.830699  1
