# generated using pymatgen
data_Li4Ge9O20
_symmetry_space_group_name_H-M   'P 1'
_cell_length_a   7.49721621
_cell_length_b   7.49721621
_cell_length_c   7.60146434
_cell_angle_alpha   89.49195695
_cell_angle_beta   89.49195697
_cell_angle_gamma   65.48828653
_symmetry_Int_Tables_number   1
_chemical_formula_structural   Li4Ge9O20
_chemical_formula_sum   'Li4 Ge9 O20'
_cell_volume   388.73678099
_cell_formula_units_Z   1
loop_
 _symmetry_equiv_pos_site_id
 _symmetry_equiv_pos_as_xyz
  1  'x, y, z'
loop_
 _atom_site_type_symbol
 _atom_site_label
 _atom_site_symmetry_multiplicity
 _atom_site_fract_x
 _atom_site_fract_y
 _atom_site_fract_z
 _atom_site_occupancy
  Li  Li1  1  0.653522  0.932508  0.618013  1
  Li  Li2  1  0.067492  0.346478  0.381987  1
  Li  Li3  1  0.671986  0.328014  0.000000  1
  Li  Li4  1  0.290383  0.709617  0.000000  1
  O  O5  1  0.781785  0.441969  0.455018  1
  O  O6  1  0.558031  0.218215  0.544982  1
  O  O7  1  0.851634  0.496551  0.129521  1
  O  O8  1  0.503449  0.148366  0.870479  1
  O  O9  1  0.543406  0.839182  0.115975  1
  O  O10  1  0.085292  0.893024  0.681315  1
  O  O11  1  0.106976  0.914708  0.318685  1
  O  O12  1  0.479314  0.533507  0.214676  1
  O  O13  1  0.466493  0.520686  0.785324  1
  O  O14  1  0.843332  0.291200  0.798833  1
  O  O15  1  0.708800  0.156668  0.201167  1
  O  O16  1  0.190847  0.035637  0.969705  1
  O  O17  1  0.964363  0.809153  0.030295  1
  O  O18  1  0.475488  0.759178  0.501301  1
  O  O19  1  0.240822  0.524512  0.498699  1
  O  O20  1  0.209678  0.206600  0.612774  1
  O  O21  1  0.793400  0.790322  0.387226  1
  O  O22  1  0.752920  0.687139  0.769682  1
  O  O23  1  0.312861  0.247080  0.230318  1
  O  O24  1  0.160818  0.456594  0.884025  1
  Ge  Ge25  1  0.652346  0.650707  0.291023  1
  Ge  Ge26  1  0.349293  0.347654  0.708977  1
  Ge  Ge27  1  0.392635  0.079034  0.049579  1
  Ge  Ge28  1  0.920966  0.607365  0.950421  1
  Ge  Ge29  1  0.883288  0.916014  0.240143  1
  Ge  Ge30  1  0.083986  0.116712  0.759857  1
  Ge  Ge31  1  0.491911  0.318403  0.330430  1
  Ge  Ge32  1  0.681597  0.508089  0.669570  1
  Ge  Ge33  1  0.233587  0.766413  0.500000  1
