# generated using pymatgen
data_NaSb
_symmetry_space_group_name_H-M   'P 1'
_cell_length_a   6.41205607
_cell_length_b   6.82721840
_cell_length_c   11.21929411
_cell_angle_alpha   95.24968033
_cell_angle_beta   90.00000000
_cell_angle_gamma   90.00000000
_symmetry_Int_Tables_number   1
_chemical_formula_structural   NaSb
_chemical_formula_sum   'Na8 Sb8'
_cell_volume   489.08138606
_cell_formula_units_Z   8
loop_
 _symmetry_equiv_pos_site_id
 _symmetry_equiv_pos_as_xyz
  1  'x, y, z'
loop_
 _atom_site_type_symbol
 _atom_site_label
 _atom_site_symmetry_multiplicity
 _atom_site_fract_x
 _atom_site_fract_y
 _atom_site_fract_z
 _atom_site_occupancy
  Na  Na1  1  0.837017  0.308083  0.541050  1
  Na  Na2  1  0.337017  0.191917  0.958950  1
  Na  Na3  1  0.162983  0.691917  0.458950  1
  Na  Na4  1  0.662983  0.808083  0.041050  1
  Na  Na5  1  0.099416  0.596711  0.826397  1
  Na  Na6  1  0.599416  0.903289  0.673603  1
  Na  Na7  1  0.900584  0.403289  0.173603  1
  Na  Na8  1  0.400584  0.096711  0.326397  1
  Sb  Sb9  1  0.338878  0.314078  0.603886  1
  Sb  Sb10  1  0.838878  0.185922  0.896114  1
  Sb  Sb11  1  0.661122  0.685922  0.396114  1
  Sb  Sb12  1  0.161122  0.814078  0.103886  1
  Sb  Sb13  1  0.596543  0.489886  0.797074  1
  Sb  Sb14  1  0.096543  0.010114  0.702926  1
  Sb  Sb15  1  0.403457  0.510114  0.202926  1
  Sb  Sb16  1  0.903457  0.989886  0.297074  1
