# generated using pymatgen
data_Li2GeO3
_symmetry_space_group_name_H-M   'P 1'
_cell_length_a   4.93478469
_cell_length_b   5.54824505
_cell_length_c   5.59965471
_cell_angle_alpha   119.69676135
_cell_angle_beta   90.00000000
_cell_angle_gamma   90.00000000
_symmetry_Int_Tables_number   1
_chemical_formula_structural   Li2GeO3
_chemical_formula_sum   'Li4 Ge2 O6'
_cell_volume   133.17867041
_cell_formula_units_Z   2
loop_
 _symmetry_equiv_pos_site_id
 _symmetry_equiv_pos_as_xyz
  1  'x, y, z'
loop_
 _atom_site_type_symbol
 _atom_site_label
 _atom_site_symmetry_multiplicity
 _atom_site_fract_x
 _atom_site_fract_y
 _atom_site_fract_z
 _atom_site_occupancy
  Li  Li1  1  0.011685  0.832464  0.348885  1
  Li  Li2  1  0.511685  0.167536  0.651115  1
  Li  Li3  1  0.511685  0.516421  0.348885  1
  Li  Li4  1  0.011685  0.483579  0.651115  1
  O  O5  1  0.872426  0.865544  0.000000  1
  O  O6  1  0.410346  0.530330  0.694796  1
  O  O7  1  0.410346  0.835534  0.305204  1
  O  O8  1  0.372426  0.134456  0.000000  1
  O  O9  1  0.910346  0.164466  0.694796  1
  O  O10  1  0.910346  0.469670  0.305204  1
  Ge  Ge11  1  0.501613  0.821897  0.000000  1
  Ge  Ge12  1  0.001613  0.178103  0.000000  1
