# generated using pymatgen
data_Na2B29
_symmetry_space_group_name_H-M   'P 1'
_cell_length_a   5.81268168
_cell_length_b   7.24953224
_cell_length_c   7.24953225
_cell_angle_alpha   91.08957668
_cell_angle_beta   113.63447703
_cell_angle_gamma   113.63447702
_symmetry_Int_Tables_number   1
_chemical_formula_structural   Na2B29
_chemical_formula_sum   'Na2 B29'
_cell_volume   250.44261123
_cell_formula_units_Z   1
loop_
 _symmetry_equiv_pos_site_id
 _symmetry_equiv_pos_as_xyz
  1  'x, y, z'
loop_
 _atom_site_type_symbol
 _atom_site_label
 _atom_site_symmetry_multiplicity
 _atom_site_fract_x
 _atom_site_fract_y
 _atom_site_fract_z
 _atom_site_occupancy
  B  B1  1  0.244159  0.741358  0.741358  1
  B  B2  1  0.638312  0.506826  0.763518  1
  B  B3  1  0.162859  0.814059  0.505338  1
  B  B4  1  0.162859  0.505338  0.814059  1
  B  B5  1  0.839898  0.990108  0.683219  1
  B  B6  1  0.839898  0.683219  0.990108  1
  B  B7  1  0.678972  0.533609  0.140358  1
  B  B8  1  0.678972  0.140358  0.533609  1
  B  B9  1  0.329060  0.361646  0.968710  1
  B  B10  1  0.329060  0.968710  0.361646  1
  B  B11  1  0.001308  0.140339  0.533568  1
  B  B12  1  0.001308  0.533568  0.140339  1
  B  B13  1  0.007627  0.968727  0.361573  1
  B  B14  1  0.007627  0.361573  0.968727  1
  B  B15  1  0.964584  0.545336  0.377410  1
  B  B16  1  0.964584  0.377410  0.545336  1
  B  B17  1  0.040706  0.121472  0.953457  1
  B  B18  1  0.040706  0.953457  0.121472  1
  B  B19  1  0.796333  0.710347  0.371156  1
  B  B20  1  0.796333  0.371156  0.710347  1
  B  B21  1  0.291603  0.371237  0.710321  1
  B  B22  1  0.291603  0.710321  0.371237  1
  B  B23  1  0.210727  0.131102  0.789934  1
  B  B24  1  0.210727  0.789934  0.131102  1
  B  B25  1  0.716625  0.790001  0.130986  1
  B  B26  1  0.716625  0.130986  0.790001  1
  B  B27  1  0.390241  0.987138  0.786919  1
  B  B28  1  0.390241  0.786919  0.987138  1
  B  B29  1  0.638312  0.763518  0.506826  1
  Na  Na30  1  0.662992  0.160787  0.160787  1
  Na  Na31  1  0.359936  0.357238  0.357238  1
