# generated using pymatgen
data_LiH3O2
_symmetry_space_group_name_H-M   'P 1'
_cell_length_a   5.67980572
_cell_length_b   5.57748879
_cell_length_c   3.25001875
_cell_angle_alpha   75.08132986
_cell_angle_beta   104.52757683
_cell_angle_gamma   83.92703002
_symmetry_Int_Tables_number   1
_chemical_formula_structural   LiH3O2
_chemical_formula_sum   'Li2 H6 O4'
_cell_volume   94.69517191
_cell_formula_units_Z   2
loop_
 _symmetry_equiv_pos_site_id
 _symmetry_equiv_pos_as_xyz
  1  'x, y, z'
loop_
 _atom_site_type_symbol
 _atom_site_label
 _atom_site_symmetry_multiplicity
 _atom_site_fract_x
 _atom_site_fract_y
 _atom_site_fract_z
 _atom_site_occupancy
  Li  Li1  1  0.347851  0.334157  0.505834  1
  Li  Li2  1  0.647710  0.648108  0.493743  1
  H  H3  1  0.019349  0.242853  0.859599  1
  H  H4  1  0.239243  0.008648  0.144265  1
  H  H5  1  0.756663  0.972334  0.854223  1
  H  H6  1  0.977856  0.742530  0.141338  1
  H  H7  1  0.733749  0.262149  0.329762  1
  H  H8  1  0.261910  0.727200  0.669262  1
  O  O9  1  0.204836  0.200777  0.001279  1
  O  O10  1  0.791966  0.781213  0.997042  1
  O  O11  1  0.712349  0.273931  0.613036  1
  O  O12  1  0.281334  0.708862  0.388274  1
