# generated using pymatgen
data_NaC
_symmetry_space_group_name_H-M   'P 1'
_cell_length_a   6.78679305
_cell_length_b   6.78715953
_cell_length_c   7.93060104
_cell_angle_alpha   115.31991626
_cell_angle_beta   115.33350197
_cell_angle_gamma   90.00000002
_symmetry_Int_Tables_number   1
_chemical_formula_structural   NaC
_chemical_formula_sum   'Na8 C8'
_cell_volume   290.87523346
_cell_formula_units_Z   8
loop_
 _symmetry_equiv_pos_site_id
 _symmetry_equiv_pos_as_xyz
  1  'x, y, z'
loop_
 _atom_site_type_symbol
 _atom_site_label
 _atom_site_symmetry_multiplicity
 _atom_site_fract_x
 _atom_site_fract_y
 _atom_site_fract_z
 _atom_site_occupancy
  C  C1  1  0.940874  0.690835  0.750072  1
  C  C2  1  0.559230  0.940921  0.250096  1
  C  C3  1  0.690802  0.809165  0.249928  1
  C  C4  1  0.809134  0.559079  0.749904  1
  C  C5  1  0.059126  0.309165  0.249928  1
  C  C6  1  0.440770  0.059079  0.749904  1
  C  C7  1  0.309198  0.190835  0.750072  1
  C  C8  1  0.190866  0.440921  0.250096  1
  Na  Na9  1  0.938781  0.250000  0.500000  1
  Na  Na10  1  0.750007  0.938774  0.999974  1
  Na  Na11  1  0.250033  0.561226  0.000026  1
  Na  Na12  1  0.561209  0.750000  0.500000  1
  Na  Na13  1  0.061219  0.750000  0.500000  1
  Na  Na14  1  0.249993  0.061226  0.000026  1
  Na  Na15  1  0.749967  0.438774  0.999974  1
  Na  Na16  1  0.438791  0.250000  0.500000  1
