# generated using pymatgen
data_NaCl7
_symmetry_space_group_name_H-M   'P 1'
_cell_length_a   6.14323538
_cell_length_b   6.14323538
_cell_length_c   6.14323538
_cell_angle_alpha   90.00000000
_cell_angle_beta   90.00000000
_cell_angle_gamma   90.00000000
_symmetry_Int_Tables_number   1
_chemical_formula_structural   NaCl7
_chemical_formula_sum   'Na1 Cl7'
_cell_volume   231.84165444
_cell_formula_units_Z   1
loop_
 _symmetry_equiv_pos_site_id
 _symmetry_equiv_pos_as_xyz
  1  'x, y, z'
loop_
 _atom_site_type_symbol
 _atom_site_label
 _atom_site_symmetry_multiplicity
 _atom_site_fract_x
 _atom_site_fract_y
 _atom_site_fract_z
 _atom_site_occupancy
  Na  Na1  1  0.000000  0.000000  0.000000  1
  Cl  Cl2  1  0.500000  0.500000  0.500000  1
  Cl  Cl3  1  0.000000  0.167124  0.500000  1
  Cl  Cl4  1  0.000000  0.832876  0.500000  1
  Cl  Cl5  1  0.500000  0.000000  0.167124  1
  Cl  Cl6  1  0.500000  0.000000  0.832876  1
  Cl  Cl7  1  0.167124  0.500000  0.000000  1
  Cl  Cl8  1  0.832876  0.500000  0.000000  1
