# generated using pymatgen
data_LiAgO2
_symmetry_space_group_name_H-M   'P 1'
_cell_length_a   3.31600150
_cell_length_b   3.31402883
_cell_length_c   9.59912905
_cell_angle_alpha   89.70658016
_cell_angle_beta   90.18897604
_cell_angle_gamma   119.94349609
_symmetry_Int_Tables_number   1
_chemical_formula_structural   LiAgO2
_chemical_formula_sum   'Li2 Ag2 O4'
_cell_volume   91.40597838
_cell_formula_units_Z   2
loop_
 _symmetry_equiv_pos_site_id
 _symmetry_equiv_pos_as_xyz
  1  'x, y, z'
loop_
 _atom_site_type_symbol
 _atom_site_label
 _atom_site_symmetry_multiplicity
 _atom_site_fract_x
 _atom_site_fract_y
 _atom_site_fract_z
 _atom_site_occupancy
  Li  Li1  1  0.333547  0.666764  0.250143  1
  Li  Li2  1  0.666464  0.333269  0.749835  1
  Ag  Ag3  1  0.000006  0.000015  0.000024  1
  Ag  Ag4  1  0.999989  0.000072  0.499978  1
  O  O5  1  0.332262  0.666651  0.667409  1
  O  O6  1  0.332738  0.666527  0.832569  1
  O  O7  1  0.667319  0.333528  0.167448  1
  O  O8  1  0.667676  0.333372  0.332591  1
