# generated using pymatgen
data_NaLu3
_symmetry_space_group_name_H-M   'P 1'
_cell_length_a   6.23762357
_cell_length_b   6.23762357
_cell_length_c   6.23762357
_cell_angle_alpha   134.62993097
_cell_angle_beta   134.62993097
_cell_angle_gamma   66.10575018
_symmetry_Int_Tables_number   1
_chemical_formula_structural   NaLu3
_chemical_formula_sum   'Na1 Lu3'
_cell_volume   121.02328729
_cell_formula_units_Z   1
loop_
 _symmetry_equiv_pos_site_id
 _symmetry_equiv_pos_as_xyz
  1  'x, y, z'
loop_
 _atom_site_type_symbol
 _atom_site_label
 _atom_site_symmetry_multiplicity
 _atom_site_fract_x
 _atom_site_fract_y
 _atom_site_fract_z
 _atom_site_occupancy
  Na  Na1  1  0.000000  0.000000  0.000000  1
  Lu  Lu2  1  0.749999  0.250000  0.499999  1
  Lu  Lu3  1  0.250000  0.749999  0.499999  1
  Lu  Lu4  1  0.500001  0.500001  0.000000  1
