# generated using pymatgen
data_Li2Hf2O5
_symmetry_space_group_name_H-M   'P 1'
_cell_length_a   10.26480790
_cell_length_b   3.89635718
_cell_length_c   11.37030003
_cell_angle_alpha   90.00000000
_cell_angle_beta   106.68951815
_cell_angle_gamma   90.00000000
_symmetry_Int_Tables_number   1
_chemical_formula_structural   Li2Hf2O5
_chemical_formula_sum   'Li8 Hf8 O20'
_cell_volume   435.60251003
_cell_formula_units_Z   4
loop_
 _symmetry_equiv_pos_site_id
 _symmetry_equiv_pos_as_xyz
  1  'x, y, z'
loop_
 _atom_site_type_symbol
 _atom_site_label
 _atom_site_symmetry_multiplicity
 _atom_site_fract_x
 _atom_site_fract_y
 _atom_site_fract_z
 _atom_site_occupancy
  Li  Li1  1  0.094920  0.260126  0.045850  1
  Li  Li2  1  0.253562  0.298709  0.328363  1
  Li  Li3  1  0.246438  0.798709  0.171637  1
  Li  Li4  1  0.405080  0.760126  0.454150  1
  Li  Li5  1  0.594920  0.239874  0.545850  1
  Li  Li6  1  0.753562  0.201291  0.828363  1
  Li  Li7  1  0.746438  0.701291  0.671637  1
  Li  Li8  1  0.905080  0.739874  0.954150  1
  Hf  Hf9  1  0.184019  0.678319  0.852666  1
  Hf  Hf10  1  0.032797  0.868135  0.366422  1
  Hf  Hf11  1  0.315981  0.178319  0.647334  1
  Hf  Hf12  1  0.532797  0.631865  0.866422  1
  Hf  Hf13  1  0.467203  0.368135  0.133578  1
  Hf  Hf14  1  0.684019  0.821681  0.352666  1
  Hf  Hf15  1  0.967203  0.131865  0.633578  1
  Hf  Hf16  1  0.815981  0.321681  0.147334  1
  O  O17  1  0.102412  0.746150  0.983472  1
  O  O18  1  0.171091  0.169231  0.787047  1
  O  O19  1  0.996832  0.347463  0.298135  1
  O  O20  1  0.121124  0.118305  0.535092  1
  O  O21  1  0.378876  0.618305  0.964908  1
  O  O22  1  0.210967  0.806921  0.336589  1
  O  O23  1  0.328909  0.669231  0.712953  1
  O  O24  1  0.397588  0.246150  0.516528  1
  O  O25  1  0.289033  0.306922  0.163411  1
  O  O26  1  0.496832  0.152537  0.798135  1
  O  O27  1  0.503168  0.847463  0.201865  1
  O  O28  1  0.710967  0.693079  0.836589  1
  O  O29  1  0.602412  0.753850  0.483472  1
  O  O30  1  0.671091  0.330769  0.287047  1
  O  O31  1  0.789033  0.193078  0.663411  1
  O  O32  1  0.621124  0.381695  0.035092  1
  O  O33  1  0.878876  0.881695  0.464908  1
  O  O34  1  0.003168  0.652537  0.701865  1
  O  O35  1  0.828909  0.830769  0.212953  1
  O  O36  1  0.897588  0.253850  0.016528  1
