# generated using pymatgen
data_Li6Hf2O7
_symmetry_space_group_name_H-M   'P 1'
_cell_length_a   10.35216736
_cell_length_b   6.04786748
_cell_length_c   5.35198619
_cell_angle_alpha   90.00000000
_cell_angle_beta   110.29703967
_cell_angle_gamma   90.00000000
_symmetry_Int_Tables_number   1
_chemical_formula_structural   Li6Hf2O7
_chemical_formula_sum   'Li12 Hf4 O14'
_cell_volume   314.27385078
_cell_formula_units_Z   2
loop_
 _symmetry_equiv_pos_site_id
 _symmetry_equiv_pos_as_xyz
  1  'x, y, z'
loop_
 _atom_site_type_symbol
 _atom_site_label
 _atom_site_symmetry_multiplicity
 _atom_site_fract_x
 _atom_site_fract_y
 _atom_site_fract_z
 _atom_site_occupancy
  Li  Li1  1  0.143133  0.785061  0.789170  1
  Li  Li2  1  0.137407  0.236405  0.784037  1
  Li  Li3  1  0.124210  0.497304  0.160229  1
  Li  Li4  1  0.375790  0.997304  0.839771  1
  Li  Li5  1  0.362593  0.736405  0.215963  1
  Li  Li6  1  0.356867  0.285061  0.210830  1
  Li  Li7  1  0.643133  0.714939  0.789170  1
  Li  Li8  1  0.637407  0.263595  0.784037  1
  Li  Li9  1  0.624210  0.002696  0.160229  1
  Li  Li10  1  0.875790  0.502696  0.839771  1
  Li  Li11  1  0.862593  0.763595  0.215963  1
  Li  Li12  1  0.856867  0.214939  0.210830  1
  Hf  Hf13  1  0.133834  0.008733  0.270079  1
  Hf  Hf14  1  0.366166  0.508733  0.729921  1
  Hf  Hf15  1  0.633834  0.491267  0.270079  1
  Hf  Hf16  1  0.866166  0.991267  0.729921  1
  O  O17  1  0.000000  0.000000  0.500000  1
  O  O18  1  0.004147  0.767966  0.011259  1
  O  O19  1  0.244598  0.510562  0.954689  1
  O  O20  1  0.236363  0.281974  0.478811  1
  O  O21  1  0.263637  0.781974  0.521189  1
  O  O22  1  0.255402  0.010562  0.045311  1
  O  O23  1  0.495853  0.267966  0.988741  1
  O  O24  1  0.500000  0.500000  0.500000  1
  O  O25  1  0.504147  0.732034  0.011259  1
  O  O26  1  0.744598  0.989438  0.954689  1
  O  O27  1  0.736363  0.218026  0.478811  1
  O  O28  1  0.763637  0.718026  0.521189  1
  O  O29  1  0.755402  0.489438  0.045311  1
  O  O30  1  0.995853  0.232034  0.988741  1
