# generated using pymatgen
data_Li8HfO6
_symmetry_space_group_name_H-M   'P 1'
_cell_length_a   5.72354565
_cell_length_b   5.72344315
_cell_length_c   10.91143015
_cell_angle_alpha   90.00023075
_cell_angle_beta   89.99948011
_cell_angle_gamma   120.00256918
_symmetry_Int_Tables_number   1
_chemical_formula_structural   Li8HfO6
_chemical_formula_sum   'Li16 Hf2 O12'
_cell_volume   309.54485437
_cell_formula_units_Z   2
loop_
 _symmetry_equiv_pos_site_id
 _symmetry_equiv_pos_as_xyz
  1  'x, y, z'
loop_
 _atom_site_type_symbol
 _atom_site_label
 _atom_site_symmetry_multiplicity
 _atom_site_fract_x
 _atom_site_fract_y
 _atom_site_fract_z
 _atom_site_occupancy
  Li  Li1  1  0.999975  0.677718  0.768488  1
  Li  Li2  1  0.999989  0.590609  0.127350  1
  Li  Li3  1  0.999971  0.409371  0.627349  1
  Li  Li4  1  0.999993  0.322277  0.268491  1
  Li  Li5  1  0.333338  0.666663  0.407263  1
  Li  Li6  1  0.333320  0.666672  0.907262  1
  Li  Li7  1  0.322249  0.322251  0.768487  1
  Li  Li8  1  0.409385  0.409406  0.127347  1
  Li  Li9  1  0.590594  0.590603  0.627346  1
  Li  Li10  1  0.322269  0.000017  0.268489  1
  Li  Li11  1  0.677725  0.677750  0.268489  1
  Li  Li12  1  0.409393  0.999982  0.627348  1
  Li  Li13  1  0.666656  0.333336  0.907262  1
  Li  Li14  1  0.666667  0.333328  0.407263  1
  Li  Li15  1  0.590594  0.000012  0.127348  1
  Li  Li16  1  0.677711  0.999979  0.768489  1
  Hf  Hf17  1  0.000142  0.000111  0.995565  1
  Hf  Hf18  1  0.000007  -0.000085  0.495571  1
  O  O19  1  0.999983  0.670471  0.948515  1
  O  O20  1  0.000003  0.329549  0.448513  1
  O  O21  1  0.333321  0.666672  0.212921  1
  O  O22  1  -0.000005  0.000032  0.176650  1
  O  O23  1  0.999972  0.999974  0.676642  1
  O  O24  1  0.333314  0.666654  0.712918  1
  O  O25  1  0.329463  0.329480  0.948519  1
  O  O26  1  0.329523  0.000000  0.448516  1
  O  O27  1  0.670500  0.670495  0.448512  1
  O  O28  1  0.666650  0.333322  0.712920  1
  O  O29  1  0.666668  0.333345  0.212921  1
  O  O30  1  0.670432  0.000004  0.948508  1
