# generated using pymatgen
data_Li2BiO3
_symmetry_space_group_name_H-M   'P 1'
_cell_length_a   5.71998435
_cell_length_b   5.69595676
_cell_length_c   10.38439260
_cell_angle_alpha   85.31995674
_cell_angle_beta   99.35187585
_cell_angle_gamma   120.13964057
_symmetry_Int_Tables_number   1
_chemical_formula_structural   Li2BiO3
_chemical_formula_sum   'Li8 Bi4 O12'
_cell_volume   288.70181885
_cell_formula_units_Z   4
loop_
 _symmetry_equiv_pos_site_id
 _symmetry_equiv_pos_as_xyz
  1  'x, y, z'
loop_
 _atom_site_type_symbol
 _atom_site_label
 _atom_site_symmetry_multiplicity
 _atom_site_fract_x
 _atom_site_fract_y
 _atom_site_fract_z
 _atom_site_occupancy
  Li  Li1  1  0.119709  0.812131  0.504859  1
  Li  Li2  1  0.000000  0.500000  0.000000  1
  Li  Li3  1  0.088860  0.177721  0.250000  1
  Li  Li4  1  0.500000  0.500000  0.500000  1
  Li  Li5  1  0.692422  0.812131  0.995141  1
  Li  Li6  1  0.307578  0.187869  0.004859  1
  Li  Li7  1  0.911140  0.822279  0.750000  1
  Li  Li8  1  0.880291  0.187869  0.495141  1
  Bi  Bi9  1  0.245988  0.491976  0.750000  1
  Bi  Bi10  1  0.421425  0.842852  0.250000  1
  Bi  Bi11  1  0.578575  0.157148  0.750000  1
  Bi  Bi12  1  0.754012  0.508024  0.250000  1
  O  O13  1  0.018598  0.822045  0.126257  1
  O  O14  1  0.278124  0.792077  0.877301  1
  O  O15  1  0.092996  0.492579  0.367921  1
  O  O16  1  0.513952  0.792077  0.622699  1
  O  O17  1  0.196552  0.177955  0.626257  1
  O  O18  1  0.600417  0.507421  0.867921  1
  O  O19  1  0.399583  0.492579  0.132079  1
  O  O20  1  0.803448  0.822045  0.373743  1
  O  O21  1  0.486048  0.207923  0.377301  1
  O  O22  1  0.907004  0.507421  0.632079  1
  O  O23  1  0.721876  0.207923  0.122699  1
  O  O24  1  0.981402  0.177955  0.873743  1
