# generated using pymatgen
data_LiIO3
_symmetry_space_group_name_H-M   'P 1'
_cell_length_a   6.22730720
_cell_length_b   9.98201092
_cell_length_c   9.98201092
_cell_angle_alpha   90.00000000
_cell_angle_beta   90.00000000
_cell_angle_gamma   90.00000000
_symmetry_Int_Tables_number   1
_chemical_formula_structural   LiIO3
_chemical_formula_sum   'Li8 I8 O24'
_cell_volume   620.49226465
_cell_formula_units_Z   8
loop_
 _symmetry_equiv_pos_site_id
 _symmetry_equiv_pos_as_xyz
  1  'x, y, z'
loop_
 _atom_site_type_symbol
 _atom_site_label
 _atom_site_symmetry_multiplicity
 _atom_site_fract_x
 _atom_site_fract_y
 _atom_site_fract_z
 _atom_site_occupancy
  Li  Li1  1  0.400966  0.431410  0.228399  1
  Li  Li2  1  0.900966  0.771601  0.931410  1
  Li  Li3  1  0.900966  0.728399  0.568590  1
  Li  Li4  1  0.400966  0.068590  0.271601  1
  Li  Li5  1  0.599034  0.568590  0.771601  1
  Li  Li6  1  0.099034  0.228399  0.068590  1
  Li  Li7  1  0.099034  0.271601  0.431410  1
  Li  Li8  1  0.599034  0.931410  0.728399  1
  O  O9  1  0.663673  0.445802  0.346450  1
  O  O10  1  0.836327  0.346450  0.054198  1
  O  O11  1  0.336327  0.945802  0.846450  1
  O  O12  1  0.336327  0.554198  0.653550  1
  O  O13  1  0.836327  0.153550  0.445802  1
  O  O14  1  0.163673  0.653550  0.945802  1
  O  O15  1  0.663673  0.054198  0.153550  1
  O  O16  1  0.055049  0.164397  0.881185  1
  O  O17  1  0.944951  0.835603  0.118815  1
  O  O18  1  0.444951  0.881185  0.335603  1
  O  O19  1  0.444951  0.618815  0.164397  1
  O  O20  1  0.944951  0.664397  0.381185  1
  O  O21  1  0.104930  0.083753  0.204044  1
  O  O22  1  0.555049  0.118815  0.664397  1
  O  O23  1  0.555049  0.381185  0.835603  1
  O  O24  1  0.055049  0.335603  0.618815  1
  O  O25  1  0.895070  0.583753  0.704044  1
  O  O26  1  0.604930  0.795956  0.583753  1
  O  O27  1  0.604930  0.704044  0.916247  1
  O  O28  1  0.104930  0.416247  0.295956  1
  O  O29  1  0.895070  0.916247  0.795956  1
  O  O30  1  0.395070  0.204044  0.416247  1
  O  O31  1  0.395070  0.295956  0.083753  1
  O  O32  1  0.163673  0.846450  0.554198  1
  I  I33  1  0.116395  0.032008  0.760764  1
  I  I34  1  0.883605  0.532008  0.260764  1
  I  I35  1  0.383605  0.739236  0.032008  1
  I  I36  1  0.383605  0.760764  0.467992  1
  I  I37  1  0.883605  0.967992  0.239236  1
  I  I38  1  0.116395  0.467992  0.739236  1
  I  I39  1  0.616395  0.260764  0.967992  1
  I  I40  1  0.616395  0.239236  0.532008  1
