# generated using pymatgen
data_Na26Cd141
_symmetry_space_group_name_H-M   'P 1'
_cell_length_a   21.70274216
_cell_length_b   21.70274192
_cell_length_c   9.80643344
_cell_angle_alpha   90.00000000
_cell_angle_beta   90.00000000
_cell_angle_gamma   120.00000036
_symmetry_Int_Tables_number   1
_chemical_formula_structural   Na26Cd141
_chemical_formula_sum   'Na26 Cd141'
_cell_volume   4000.10076811
_cell_formula_units_Z   1
loop_
 _symmetry_equiv_pos_site_id
 _symmetry_equiv_pos_as_xyz
  1  'x, y, z'
loop_
 _atom_site_type_symbol
 _atom_site_label
 _atom_site_symmetry_multiplicity
 _atom_site_fract_x
 _atom_site_fract_y
 _atom_site_fract_z
 _atom_site_occupancy
  Na  Na1  1  0.241638  0.758362  0.000000  1
  Na  Na2  1  0.758362  0.241638  0.000000  1
  Na  Na3  1  0.516724  0.758362  0.000000  1
  Na  Na4  1  0.723582  0.723582  0.691450  1
  Na  Na5  1  0.575600  0.151199  0.500000  1
  Na  Na6  1  0.241638  0.483276  0.000000  1
  Na  Na7  1  0.000000  0.000000  0.823708  1
  Na  Na8  1  0.000000  0.723582  0.691450  1
  Na  Na9  1  0.424400  0.848801  0.500000  1
  Na  Na10  1  0.000000  0.000000  0.176292  1
  Na  Na11  1  0.848801  0.424400  0.500000  1
  Na  Na12  1  0.723582  0.000000  0.691450  1
  Na  Na13  1  0.575600  0.424400  0.500000  1
  Na  Na14  1  0.424400  0.575600  0.500000  1
  Na  Na15  1  0.723582  0.723582  0.308550  1
  Na  Na16  1  0.000000  0.723582  0.308550  1
  Na  Na17  1  0.758362  0.516724  0.000000  1
  Na  Na18  1  0.000000  0.276418  0.691450  1
  Na  Na19  1  0.000000  0.276418  0.308550  1
  Na  Na20  1  0.483276  0.241638  0.000000  1
  Na  Na21  1  0.276418  0.000000  0.691450  1
  Na  Na22  1  0.276418  0.000000  0.308550  1
  Na  Na23  1  0.723582  0.000000  0.308550  1
  Na  Na24  1  0.151199  0.575600  0.500000  1
  Na  Na25  1  0.276418  0.276418  0.308550  1
  Na  Na26  1  0.276418  0.276418  0.691450  1
  Cd  Cd27  1  0.357718  0.178859  0.243085  1
  Cd  Cd28  1  0.811230  0.905615  0.238369  1
  Cd  Cd29  1  0.188770  0.094385  0.238369  1
  Cd  Cd30  1  0.178859  0.357718  0.756915  1
  Cd  Cd31  1  0.591852  0.720994  0.500000  1
  Cd  Cd32  1  0.420428  0.000000  0.500000  1
  Cd  Cd33  1  0.821141  0.642282  0.756915  1
  Cd  Cd34  1  0.150329  0.150329  0.000000  1
  Cd  Cd35  1  0.454449  0.110888  0.224029  1
  Cd  Cd36  1  0.178859  0.821141  0.756915  1
  Cd  Cd37  1  0.110888  0.656439  0.224029  1
  Cd  Cd38  1  0.591852  0.870857  0.500000  1
  Cd  Cd39  1  0.545551  0.889112  0.224029  1
  Cd  Cd40  1  0.083440  0.766779  0.000000  1
  Cd  Cd41  1  0.233221  0.916560  0.000000  1
  Cd  Cd42  1  0.446247  0.553753  0.000000  1
  Cd  Cd43  1  0.094385  0.905615  0.238369  1
  Cd  Cd44  1  0.656439  0.545551  0.224029  1
  Cd  Cd45  1  0.821141  0.642282  0.243085  1
  Cd  Cd46  1  0.889112  0.545551  0.224029  1
  Cd  Cd47  1  0.138265  0.138265  0.500000  1
  Cd  Cd48  1  0.579572  0.579572  0.500000  1
  Cd  Cd49  1  0.110888  0.454449  0.775971  1
  Cd  Cd50  1  0.761606  0.380803  0.161258  1
  Cd  Cd51  1  0.476292  0.738146  0.654670  1
  Cd  Cd52  1  0.107506  0.553753  0.000000  1
  Cd  Cd53  1  0.129143  0.408148  0.500000  1
  Cd  Cd54  1  0.150329  0.000000  0.000000  1
  Cd  Cd55  1  0.642282  0.821141  0.756915  1
  Cd  Cd56  1  0.094385  0.188770  0.238369  1
  Cd  Cd57  1  0.606640  0.000000  0.000000  1
  Cd  Cd58  1  0.343561  0.454449  0.224029  1
  Cd  Cd59  1  0.000000  0.579572  0.500000  1
  Cd  Cd60  1  0.454449  0.343561  0.224029  1
  Cd  Cd61  1  0.000000  0.500000  0.246198  1
  Cd  Cd62  1  0.136498  0.272996  0.500000  1
  Cd  Cd63  1  1.000000  0.861735  0.500000  1
  Cd  Cd64  1  0.138265  0.000000  0.500000  1
  Cd  Cd65  1  0.333333  0.666667  0.500000  1
  Cd  Cd66  1  0.863502  0.727004  0.500000  1
  Cd  Cd67  1  0.279006  0.870857  0.500000  1
  Cd  Cd68  1  0.861735  0.861735  0.500000  1
  Cd  Cd69  1  0.870857  0.279006  0.500000  1
  Cd  Cd70  1  0.870857  0.591852  0.500000  1
  Cd  Cd71  1  0.083440  0.316660  0.000000  1
  Cd  Cd72  1  0.849671  0.000000  0.000000  1
  Cd  Cd73  1  0.380803  0.761606  0.838742  1
  Cd  Cd74  1  0.905615  0.811230  0.761631  1
  Cd  Cd75  1  0.233221  0.316660  0.000000  1
  Cd  Cd76  1  0.136498  0.863502  0.500000  1
  Cd  Cd77  1  0.000000  0.420428  0.500000  1
  Cd  Cd78  1  0.553753  0.107506  0.000000  1
  Cd  Cd79  1  0.738146  0.476292  0.654670  1
  Cd  Cd80  1  0.343561  0.889112  0.224029  1
  Cd  Cd81  1  0.683340  0.916560  0.000000  1
  Cd  Cd82  1  0.261854  0.523708  0.654670  1
  Cd  Cd83  1  0.811230  0.905615  0.761631  1
  Cd  Cd84  1  0.821141  0.178859  0.756915  1
  Cd  Cd85  1  0.408148  0.279006  0.500000  1
  Cd  Cd86  1  0.892494  0.446247  0.000000  1
  Cd  Cd87  1  0.094385  0.188770  0.761631  1
  Cd  Cd88  1  0.738146  0.476292  0.345330  1
  Cd  Cd89  1  0.738146  0.261854  0.654670  1
  Cd  Cd90  1  0.000000  0.606640  0.000000  1
  Cd  Cd91  1  0.863502  0.136498  0.500000  1
  Cd  Cd92  1  0.000000  0.138265  0.500000  1
  Cd  Cd93  1  0.905615  0.094385  0.238369  1
  Cd  Cd94  1  0.446247  0.892494  0.000000  1
  Cd  Cd95  1  0.545551  0.656439  0.224029  1
  Cd  Cd96  1  0.656439  0.545551  0.775971  1
  Cd  Cd97  1  0.261854  0.523708  0.345330  1
  Cd  Cd98  1  0.178859  0.357718  0.243085  1
  Cd  Cd99  1  0.238394  0.619197  0.838742  1
  Cd  Cd100  1  0.454449  0.343561  0.775971  1
  Cd  Cd101  1  0.545551  0.889112  0.775971  1
  Cd  Cd102  1  0.000000  0.849671  0.000000  1
  Cd  Cd103  1  0.188770  0.094385  0.761631  1
  Cd  Cd104  1  0.420428  0.420428  0.500000  1
  Cd  Cd105  1  0.000000  0.393360  0.000000  1
  Cd  Cd106  1  0.000000  0.500000  0.753802  1
  Cd  Cd107  1  0.619197  0.380803  0.161258  1
  Cd  Cd108  1  0.000000  0.150329  0.000000  1
  Cd  Cd109  1  0.110888  0.454449  0.224029  1
  Cd  Cd110  1  0.523708  0.261854  0.345330  1
  Cd  Cd111  1  0.408148  0.129143  0.500000  1
  Cd  Cd112  1  0.889112  0.545551  0.775971  1
  Cd  Cd113  1  0.316660  0.233221  0.000000  1
  Cd  Cd114  1  0.500000  0.000000  0.753802  1
  Cd  Cd115  1  0.129143  0.720994  0.500000  1
  Cd  Cd116  1  0.727004  0.863502  0.500000  1
  Cd  Cd117  1  0.380803  0.619197  0.161258  1
  Cd  Cd118  1  0.720994  0.591852  0.500000  1
  Cd  Cd119  1  0.393360  0.000000  0.000000  1
  Cd  Cd120  1  0.916560  0.233221  0.000000  1
  Cd  Cd121  1  0.766779  0.083440  0.000000  1
  Cd  Cd122  1  0.357718  0.178859  0.756915  1
  Cd  Cd123  1  0.849671  0.849671  0.000000  1
  Cd  Cd124  1  0.272996  0.136498  0.500000  1
  Cd  Cd125  1  0.500000  0.500000  0.246198  1
  Cd  Cd126  1  0.500000  0.500000  0.753802  1
  Cd  Cd127  1  0.821141  0.178859  0.243085  1
  Cd  Cd128  1  0.523708  0.261854  0.654670  1
  Cd  Cd129  1  0.666667  0.333333  0.500000  1
  Cd  Cd130  1  0.178859  0.821141  0.243085  1
  Cd  Cd131  1  0.619197  0.238394  0.161258  1
  Cd  Cd132  1  0.343561  0.454449  0.775971  1
  Cd  Cd133  1  0.619197  0.380803  0.838742  1
  Cd  Cd134  1  0.861735  0.000000  0.500000  1
  Cd  Cd135  1  0.380803  0.619197  0.838742  1
  Cd  Cd136  1  0.545551  0.656439  0.775971  1
  Cd  Cd137  1  0.656439  0.110888  0.775971  1
  Cd  Cd138  1  0.761606  0.380803  0.838742  1
  Cd  Cd139  1  0.738146  0.261854  0.345330  1
  Cd  Cd140  1  0.261854  0.738146  0.345330  1
  Cd  Cd141  1  0.393360  0.393360  0.000000  1
  Cd  Cd142  1  0.656439  0.110888  0.224029  1
  Cd  Cd143  1  0.238394  0.619197  0.161258  1
  Cd  Cd144  1  0.889112  0.343561  0.775971  1
  Cd  Cd145  1  0.553753  0.446247  0.000000  1
  Cd  Cd146  1  0.316660  0.083440  0.000000  1
  Cd  Cd147  1  0.905615  0.094385  0.761631  1
  Cd  Cd148  1  0.476292  0.738146  0.345330  1
  Cd  Cd149  1  0.343561  0.889112  0.775971  1
  Cd  Cd150  1  0.619197  0.238394  0.838742  1
  Cd  Cd151  1  0.720994  0.129143  0.500000  1
  Cd  Cd152  1  0.454449  0.110888  0.775971  1
  Cd  Cd153  1  0.916560  0.683340  0.000000  1
  Cd  Cd154  1  0.889112  0.343561  0.224029  1
  Cd  Cd155  1  0.094385  0.905615  0.761631  1
  Cd  Cd156  1  0.000000  0.000000  0.500000  1
  Cd  Cd157  1  0.279006  0.408148  0.500000  1
  Cd  Cd158  1  0.905615  0.811230  0.238369  1
  Cd  Cd159  1  0.579572  0.000000  0.500000  1
  Cd  Cd160  1  0.261854  0.738146  0.654670  1
  Cd  Cd161  1  0.766779  0.683340  0.000000  1
  Cd  Cd162  1  0.500000  0.000000  0.246198  1
  Cd  Cd163  1  0.683340  0.766779  0.000000  1
  Cd  Cd164  1  0.606640  0.606640  0.000000  1
  Cd  Cd165  1  0.380803  0.761606  0.161258  1
  Cd  Cd166  1  0.110888  0.656439  0.775971  1
  Cd  Cd167  1  0.642282  0.821141  0.243085  1
