# generated using pymatgen
data_LiIO3
_symmetry_space_group_name_H-M   'P 1'
_cell_length_a   5.23084585
_cell_length_b   5.23084561
_cell_length_c   4.81175460
_cell_angle_alpha   90.00000000
_cell_angle_beta   90.00000000
_cell_angle_gamma   120.00000143
_symmetry_Int_Tables_number   1
_chemical_formula_structural   LiIO3
_chemical_formula_sum   'Li2 I2 O6'
_cell_volume   114.01918166
_cell_formula_units_Z   2
loop_
 _symmetry_equiv_pos_site_id
 _symmetry_equiv_pos_as_xyz
  1  'x, y, z'
loop_
 _atom_site_type_symbol
 _atom_site_label
 _atom_site_symmetry_multiplicity
 _atom_site_fract_x
 _atom_site_fract_y
 _atom_site_fract_z
 _atom_site_occupancy
  O  O1  1  1.000000  0.329809  0.999999  1
  O  O2  1  0.329809  0.000000  0.999999  1
  O  O3  1  1.000000  0.670191  0.500001  1
  O  O4  1  0.670191  0.670191  0.999999  1
  O  O5  1  0.670191  0.000000  0.500001  1
  O  O6  1  0.329809  0.329809  0.500001  1
  Li  Li7  1  0.000000  0.000000  0.250000  1
  I  I8  1  0.666667  0.333333  0.750000  1
  I  I9  1  0.333333  0.666667  0.250000  1
  Li  Li10  1  0.000000  0.000000  0.750000  1
