# generated using pymatgen
data_LiIO3
_symmetry_space_group_name_H-M   'P 1'
_cell_length_a   6.77233784
_cell_length_b   9.97705639
_cell_length_c   9.97705639
_cell_angle_alpha   90.00000000
_cell_angle_beta   90.00000000
_cell_angle_gamma   90.00000000
_symmetry_Int_Tables_number   1
_chemical_formula_structural   LiIO3
_chemical_formula_sum   'Li8 I8 O24'
_cell_volume   674.12971146
_cell_formula_units_Z   8
loop_
 _symmetry_equiv_pos_site_id
 _symmetry_equiv_pos_as_xyz
  1  'x, y, z'
loop_
 _atom_site_type_symbol
 _atom_site_label
 _atom_site_symmetry_multiplicity
 _atom_site_fract_x
 _atom_site_fract_y
 _atom_site_fract_z
 _atom_site_occupancy
  Li  Li1  1  0.750000  0.750000  0.750000  1
  Li  Li2  1  0.250000  0.250000  0.250000  1
  Li  Li3  1  0.500000  0.000000  0.000000  1
  Li  Li4  1  0.250000  0.750000  0.750000  1
  Li  Li5  1  0.500000  0.500000  0.500000  1
  Li  Li6  1  0.000000  0.500000  0.000000  1
  Li  Li7  1  0.000000  0.000000  0.500000  1
  Li  Li8  1  0.750000  0.250000  0.250000  1
  I  I9  1  0.395900  0.261407  0.965961  1
  I  I10  1  0.604100  0.761407  0.465961  1
  I  I11  1  0.395900  0.238593  0.534039  1
  I  I12  1  0.604100  0.738593  0.034039  1
  I  I13  1  0.104100  0.534039  0.261407  1
  I  I14  1  0.895900  0.034039  0.761407  1
  I  I15  1  0.895900  0.465961  0.738593  1
  I  I16  1  0.104100  0.965961  0.238593  1
  O  O17  1  0.202482  0.330147  0.442323  1
  O  O18  1  0.297518  0.442323  0.169853  1
  O  O19  1  0.043520  0.846016  0.370935  1
  O  O20  1  0.956480  0.346016  0.870935  1
  O  O21  1  0.905836  0.417809  0.221122  1
  O  O22  1  0.797518  0.830147  0.942323  1
  O  O23  1  0.094164  0.917809  0.721122  1
  O  O24  1  0.594164  0.221122  0.082191  1
  O  O25  1  0.094164  0.582191  0.778878  1
  O  O26  1  0.956480  0.153984  0.629065  1
  O  O27  1  0.905836  0.082191  0.278878  1
  O  O28  1  0.297518  0.057677  0.330147  1
  O  O29  1  0.456480  0.370935  0.653984  1
  O  O30  1  0.456480  0.129065  0.846016  1
  O  O31  1  0.702482  0.942323  0.669853  1
  O  O32  1  0.594164  0.278878  0.417809  1
  O  O33  1  0.543520  0.629065  0.346016  1
  O  O34  1  0.405836  0.721122  0.582191  1
  O  O35  1  0.043520  0.653984  0.129065  1
  O  O36  1  0.202482  0.169853  0.057677  1
  O  O37  1  0.405836  0.778878  0.917809  1
  O  O38  1  0.797518  0.669853  0.557677  1
  O  O39  1  0.702482  0.557677  0.830147  1
  O  O40  1  0.543520  0.870935  0.153984  1
