# generated using pymatgen
data_LiIO4
_symmetry_space_group_name_H-M   'P 1'
_cell_length_a   5.38590854
_cell_length_b   8.17270650
_cell_length_c   8.69585559
_cell_angle_alpha   90.00000000
_cell_angle_beta   90.00000000
_cell_angle_gamma   104.93299991
_symmetry_Int_Tables_number   1
_chemical_formula_structural   LiIO4
_chemical_formula_sum   'Li4 I4 O16'
_cell_volume   369.84243074
_cell_formula_units_Z   4
loop_
 _symmetry_equiv_pos_site_id
 _symmetry_equiv_pos_as_xyz
  1  'x, y, z'
loop_
 _atom_site_type_symbol
 _atom_site_label
 _atom_site_symmetry_multiplicity
 _atom_site_fract_x
 _atom_site_fract_y
 _atom_site_fract_z
 _atom_site_occupancy
  Li  Li1  1  0.748885  0.331138  0.962597  1
  Li  Li2  1  0.751115  0.168862  0.462597  1
  Li  Li3  1  0.251115  0.668862  0.037403  1
  Li  Li4  1  0.248885  0.831138  0.537403  1
  O  O5  1  0.610374  0.978726  0.627511  1
  O  O6  1  0.889626  0.521274  0.127511  1
  O  O7  1  0.389626  0.021274  0.372489  1
  O  O8  1  0.110374  0.478726  0.872489  1
  O  O9  1  0.579002  0.756188  0.897030  1
  O  O10  1  0.920998  0.743812  0.397030  1
  O  O11  1  0.420998  0.243812  0.102970  1
  O  O12  1  0.079002  0.256188  0.602970  1
  O  O13  1  0.063082  0.873538  0.733954  1
  O  O14  1  0.436918  0.626462  0.233954  1
  O  O15  1  0.936918  0.126462  0.266046  1
  O  O16  1  0.563082  0.373538  0.766046  1
  O  O17  1  0.857996  0.112029  0.918363  1
  O  O18  1  0.642004  0.387971  0.418363  1
  O  O19  1  0.142004  0.887971  0.081637  1
  O  O20  1  0.357996  0.612029  0.581637  1
  I  I21  1  0.279299  0.430870  0.705969  1
  I  I22  1  0.220701  0.069130  0.205969  1
  I  I23  1  0.720701  0.569130  0.294031  1
  I  I24  1  0.779299  0.930870  0.794031  1
