# generated using pymatgen
data_NaDy3
_symmetry_space_group_name_H-M   'P 1'
_cell_length_a   7.18738872
_cell_length_b   7.18738882
_cell_length_c   5.77606789
_cell_angle_alpha   90.00000000
_cell_angle_beta   90.00000000
_cell_angle_gamma   119.99999476
_symmetry_Int_Tables_number   1
_chemical_formula_structural   NaDy3
_chemical_formula_sum   'Na2 Dy6'
_cell_volume   258.40756122
_cell_formula_units_Z   2
loop_
 _symmetry_equiv_pos_site_id
 _symmetry_equiv_pos_as_xyz
  1  'x, y, z'
loop_
 _atom_site_type_symbol
 _atom_site_label
 _atom_site_symmetry_multiplicity
 _atom_site_fract_x
 _atom_site_fract_y
 _atom_site_fract_z
 _atom_site_occupancy
  Na  Na1  1  0.333333  0.666666  0.750001  1
  Na  Na2  1  0.666667  0.333333  0.249999  1
  Dy  Dy3  1  0.164424  0.835576  0.249999  1
  Dy  Dy4  1  0.835576  0.671152  0.750001  1
  Dy  Dy5  1  0.328849  0.164424  0.750001  1
  Dy  Dy6  1  0.835575  0.164424  0.750001  1
  Dy  Dy7  1  0.164425  0.328850  0.249999  1
  Dy  Dy8  1  0.671151  0.835576  0.249999  1
