# generated using pymatgen
data_LiIO3
_symmetry_space_group_name_H-M   'P 1'
_cell_length_a   5.54001892
_cell_length_b   5.54001014
_cell_length_c   5.28296465
_cell_angle_alpha   89.99995599
_cell_angle_beta   89.99985356
_cell_angle_gamma   120.00015207
_symmetry_Int_Tables_number   1
_chemical_formula_structural   LiIO3
_chemical_formula_sum   'Li2 I2 O6'
_cell_volume   140.42016491
_cell_formula_units_Z   2
loop_
 _symmetry_equiv_pos_site_id
 _symmetry_equiv_pos_as_xyz
  1  'x, y, z'
loop_
 _atom_site_type_symbol
 _atom_site_label
 _atom_site_symmetry_multiplicity
 _atom_site_fract_x
 _atom_site_fract_y
 _atom_site_fract_z
 _atom_site_occupancy
  O  O1  1  0.749241  0.659589  0.338177  1
  O  O2  1  0.250758  0.340409  0.838176  1
  Li  Li3  1  0.999999  0.999998  0.077643  1
  O  O4  1  0.089651  0.749241  0.838174  1
  O  O5  1  0.340410  0.089653  0.338176  1
  I  I6  1  0.666669  0.333336  0.498527  1
  Li  Li7  1  0.000001  0.000002  0.577643  1
  O  O8  1  0.659590  0.910347  0.838176  1
  I  I9  1  0.333336  0.666667  -0.001469  1
  O  O10  1  0.910346  0.250759  0.338176  1
