# generated using pymatgen
data_LiIO3
_symmetry_space_group_name_H-M   'P 1'
_cell_length_a   3.54323782
_cell_length_b   5.70045546
_cell_length_c   5.70045546
_cell_angle_alpha   120.03924783
_cell_angle_beta   90.00000000
_cell_angle_gamma   90.00000000
_symmetry_Int_Tables_number   1
_chemical_formula_structural   LiIO3
_chemical_formula_sum   'Li2 I2 O6'
_cell_volume   99.67314324
_cell_formula_units_Z   2
loop_
 _symmetry_equiv_pos_site_id
 _symmetry_equiv_pos_as_xyz
  1  'x, y, z'
loop_
 _atom_site_type_symbol
 _atom_site_label
 _atom_site_symmetry_multiplicity
 _atom_site_fract_x
 _atom_site_fract_y
 _atom_site_fract_z
 _atom_site_occupancy
  Li  Li1  1  0.250000  -0.000000  -0.000000  1
  Li  Li2  1  0.750000  -0.000000  -0.000000  1
  I  I3  1  0.500000  0.333581  0.666419  1
  I  I4  1  0.000000  0.666419  0.333581  1
  O  O5  1  0.000000  0.187540  0.812460  1
  O  O6  1  -0.000000  0.625151  0.812440  1
  O  O7  1  -0.000000  0.187560  0.374849  1
  O  O8  1  0.500000  0.812460  0.187540  1
  O  O9  1  0.500000  0.374849  0.187560  1
  O  O10  1  0.500000  0.812440  0.625151  1
