# generated using pymatgen
data_K3Sr
_symmetry_space_group_name_H-M   'P 1'
_cell_length_a   9.20686913
_cell_length_b   9.20686867
_cell_length_c   7.51062047
_cell_angle_alpha   90.00000000
_cell_angle_beta   90.00000000
_cell_angle_gamma   119.99999430
_symmetry_Int_Tables_number   1
_chemical_formula_structural   K3Sr
_chemical_formula_sum   'K6 Sr2'
_cell_volume   551.35382449
_cell_formula_units_Z   2
loop_
 _symmetry_equiv_pos_site_id
 _symmetry_equiv_pos_as_xyz
  1  'x, y, z'
loop_
 _atom_site_type_symbol
 _atom_site_label
 _atom_site_symmetry_multiplicity
 _atom_site_fract_x
 _atom_site_fract_y
 _atom_site_fract_z
 _atom_site_occupancy
  K  K1  1  0.167943  0.335886  0.249999  1
  K  K2  1  0.664114  0.832057  0.249999  1
  K  K3  1  0.167943  0.832057  0.249999  1
  K  K4  1  0.832057  0.664115  0.750000  1
  K  K5  1  0.335885  0.167943  0.750000  1
  K  K6  1  0.832058  0.167943  0.750000  1
  Sr  Sr7  1  0.333334  0.666667  0.750000  1
  Sr  Sr8  1  0.666667  0.333332  0.249999  1
