# generated using pymatgen
data_Li9Bi5O13
_symmetry_space_group_name_H-M   'P 1'
_cell_length_a   13.63360666
_cell_length_b   5.28741461
_cell_length_c   22.66149042
_cell_angle_alpha   90.00000000
_cell_angle_beta   70.17591434
_cell_angle_gamma   90.00000000
_symmetry_Int_Tables_number   1
_chemical_formula_structural   Li9Bi5O13
_chemical_formula_sum   'Li36 Bi20 O52'
_cell_volume   1536.77899924
_cell_formula_units_Z   4
loop_
 _symmetry_equiv_pos_site_id
 _symmetry_equiv_pos_as_xyz
  1  'x, y, z'
loop_
 _atom_site_type_symbol
 _atom_site_label
 _atom_site_symmetry_multiplicity
 _atom_site_fract_x
 _atom_site_fract_y
 _atom_site_fract_z
 _atom_site_occupancy
  Li  Li1  1  0.092477  0.276252  0.104384  1
  Li  Li2  1  0.048613  0.175902  0.221727  1
  Li  Li3  1  0.052667  0.174515  0.359288  1
  Li  Li4  1  0.191869  0.669862  0.321993  1
  Li  Li5  1  0.282533  0.187755  0.049189  1
  Li  Li6  1  0.217467  0.687755  0.450811  1
  Li  Li7  1  0.079272  0.330576  0.802338  1
  Li  Li8  1  0.157820  0.820261  0.579398  1
  Li  Li9  1  0.308131  0.169862  0.178007  1
  Li  Li10  1  0.177558  0.830306  0.702158  1
  Li  Li11  1  0.292304  0.170156  0.506708  1
  Li  Li12  1  0.447333  0.674515  0.140712  1
  Li  Li13  1  0.451387  0.675902  0.278273  1
  Li  Li14  1  0.207696  0.670156  0.993292  1
  Li  Li15  1  0.407523  0.776252  0.395616  1
  Li  Li16  1  0.322442  0.330306  0.797842  1
  Li  Li17  1  0.342180  0.320261  0.920602  1
  Li  Li18  1  0.420728  0.830576  0.697662  1
  Li  Li19  1  0.579272  0.169424  0.302338  1
  Li  Li20  1  0.657820  0.679739  0.079398  1
  Li  Li21  1  0.677558  0.669694  0.202158  1
  Li  Li22  1  0.592477  0.223748  0.604384  1
  Li  Li23  1  0.792304  0.329844  0.006708  1
  Li  Li24  1  0.548613  0.324097  0.721727  1
  Li  Li25  1  0.552667  0.325485  0.859288  1
  Li  Li26  1  0.707696  0.829844  0.493292  1
  Li  Li27  1  0.822442  0.169694  0.297842  1
  Li  Li28  1  0.691869  0.830138  0.821993  1
  Li  Li29  1  0.842180  0.179739  0.420602  1
  Li  Li30  1  0.920728  0.669424  0.197662  1
  Li  Li31  1  0.782533  0.312245  0.549189  1
  Li  Li32  1  0.717467  0.812245  0.950811  1
  Li  Li33  1  0.808131  0.330138  0.678007  1
  Li  Li34  1  0.947333  0.825485  0.640712  1
  Li  Li35  1  0.951387  0.824098  0.778273  1
  Li  Li36  1  0.907523  0.723748  0.895616  1
  Bi  Bi37  1  0.059728  0.243689  0.525743  1
  Bi  Bi38  1  0.199240  0.701967  0.147979  1
  Bi  Bi39  1  0.057048  0.305771  0.677929  1
  Bi  Bi40  1  0.081746  0.254512  0.959178  1
  Bi  Bi41  1  0.300760  0.201967  0.352021  1
  Bi  Bi42  1  0.167862  0.758677  0.855182  1
  Bi  Bi43  1  0.332138  0.258677  0.644818  1
  Bi  Bi44  1  0.559728  0.256311  0.025743  1
  Bi  Bi45  1  0.418254  0.754512  0.540822  1
  Bi  Bi46  1  0.557048  0.194229  0.177929  1
  Bi  Bi47  1  0.442952  0.805771  0.822071  1
  Bi  Bi48  1  0.581746  0.245488  0.459178  1
  Bi  Bi49  1  0.440272  0.743689  0.974257  1
  Bi  Bi50  1  0.667862  0.741323  0.355182  1
  Bi  Bi51  1  0.832138  0.241323  0.144818  1
  Bi  Bi52  1  0.699240  0.798033  0.647979  1
  Bi  Bi53  1  0.918254  0.745488  0.040822  1
  Bi  Bi54  1  0.942952  0.694229  0.322071  1
  Bi  Bi55  1  0.800760  0.298033  0.852021  1
  Bi  Bi56  1  0.940272  0.756311  0.474257  1
  O  O57  1  0.045004  0.786680  0.230327  1
  O  O58  1  0.050315  0.799577  0.367203  1
  O  O59  1  0.200361  0.291116  0.143557  1
  O  O60  1  0.071523  0.838544  0.522834  1
  O  O61  1  0.281770  0.803744  0.047874  1
  O  O62  1  0.068364  0.702612  0.668777  1
  O  O63  1  0.186937  0.299342  0.315825  1
  O  O64  1  0.170749  0.203392  0.588619  1
  O  O65  1  0.313063  0.799342  0.184175  1
  O  O66  1  0.039498  0.691349  0.824023  1
  O  O67  1  0.077210  0.665443  0.962675  1
  O  O68  1  0.218230  0.303744  0.452126  1
  O  O69  1  0.299639  0.791116  0.356443  1
  O  O70  1  0.174462  0.202253  0.721724  1
  O  O71  1  0.178801  0.348749  0.857633  1
  O  O72  1  0.449685  0.299577  0.132797  1
  O  O73  1  0.454996  0.286680  0.269673  1
  O  O74  1  0.320735  0.796654  0.488290  1
  O  O75  1  0.179265  0.296654  0.011709  1
  O  O76  1  0.321199  0.848749  0.642367  1
  O  O77  1  0.571523  0.661456  0.022834  1
  O  O78  1  0.325538  0.702253  0.778276  1
  O  O79  1  0.568364  0.797388  0.168777  1
  O  O80  1  0.422790  0.165443  0.537325  1
  O  O81  1  0.460502  0.191349  0.675977  1
  O  O82  1  0.329251  0.703392  0.911381  1
  O  O83  1  0.670749  0.296608  0.088619  1
  O  O84  1  0.539498  0.808651  0.324023  1
  O  O85  1  0.577210  0.834557  0.462675  1
  O  O86  1  0.431636  0.202612  0.831223  1
  O  O87  1  0.674462  0.297747  0.221724  1
  O  O88  1  0.428477  0.338544  0.977166  1
  O  O89  1  0.678801  0.151251  0.357633  1
  O  O90  1  0.820735  0.703346  0.988291  1
  O  O91  1  0.679265  0.203346  0.511709  1
  O  O92  1  0.545004  0.713320  0.730327  1
  O  O93  1  0.550315  0.700423  0.867203  1
  O  O94  1  0.821199  0.651251  0.142367  1
  O  O95  1  0.825538  0.797747  0.278276  1
  O  O96  1  0.700361  0.208884  0.643557  1
  O  O97  1  0.781770  0.696256  0.547874  1
  O  O98  1  0.922790  0.334557  0.037325  1
  O  O99  1  0.960502  0.308651  0.175977  1
  O  O100  1  0.686937  0.200658  0.815825  1
  O  O101  1  0.829251  0.796608  0.411381  1
  O  O102  1  0.813063  0.700658  0.684175  1
  O  O103  1  0.931636  0.297388  0.331223  1
  O  O104  1  0.718230  0.196256  0.952126  1
  O  O105  1  0.928477  0.161456  0.477166  1
  O  O106  1  0.799639  0.708884  0.856443  1
  O  O107  1  0.949685  0.200423  0.632797  1
  O  O108  1  0.954996  0.213320  0.769673  1
