# generated using pymatgen
data_NaMg3
_symmetry_space_group_name_H-M   'P 1'
_cell_length_a   6.60749394
_cell_length_b   6.60749307
_cell_length_c   5.37588861
_cell_angle_alpha   90.00000000
_cell_angle_beta   90.00000000
_cell_angle_gamma   119.99999936
_symmetry_Int_Tables_number   1
_chemical_formula_structural   NaMg3
_chemical_formula_sum   'Na2 Mg6'
_cell_volume   203.26115341
_cell_formula_units_Z   2
loop_
 _symmetry_equiv_pos_site_id
 _symmetry_equiv_pos_as_xyz
  1  'x, y, z'
loop_
 _atom_site_type_symbol
 _atom_site_label
 _atom_site_symmetry_multiplicity
 _atom_site_fract_x
 _atom_site_fract_y
 _atom_site_fract_z
 _atom_site_occupancy
  Na  Na1  1  0.666667  0.333333  0.250001  1
  Na  Na2  1  0.333334  0.666667  0.750000  1
  Mg  Mg3  1  0.162646  0.325293  0.250001  1
  Mg  Mg4  1  0.162646  0.837355  0.250001  1
  Mg  Mg5  1  0.674708  0.837355  0.250001  1
  Mg  Mg6  1  0.325293  0.162647  0.750000  1
  Mg  Mg7  1  0.837354  0.162647  0.750000  1
  Mg  Mg8  1  0.837355  0.674707  0.750000  1
