# generated using pymatgen
data_Li3InO3
_symmetry_space_group_name_H-M   'P 1'
_cell_length_a   9.88804162
_cell_length_b   9.88804162
_cell_length_c   10.43252482
_cell_angle_alpha   90.00000000
_cell_angle_beta   90.00000000
_cell_angle_gamma   119.99999999
_symmetry_Int_Tables_number   1
_chemical_formula_structural   Li3InO3
_chemical_formula_sum   'Li36 In12 O36'
_cell_volume   883.36589903
_cell_formula_units_Z   12
loop_
 _symmetry_equiv_pos_site_id
 _symmetry_equiv_pos_as_xyz
  1  'x, y, z'
loop_
 _atom_site_type_symbol
 _atom_site_label
 _atom_site_symmetry_multiplicity
 _atom_site_fract_x
 _atom_site_fract_y
 _atom_site_fract_z
 _atom_site_occupancy
  Li  Li1  1  0.437104  0.191662  0.929357  1
  Li  Li2  1  0.808338  0.245442  0.929357  1
  Li  Li3  1  0.754558  0.562896  0.929357  1
  Li  Li4  1  0.245442  0.808338  0.570643  1
  Li  Li5  1  0.562896  0.754558  0.570643  1
  Li  Li6  1  0.191662  0.437104  0.570643  1
  Li  Li7  1  0.562896  0.808338  0.070643  1
  Li  Li8  1  0.191662  0.754558  0.070643  1
  Li  Li9  1  0.245442  0.437104  0.070643  1
  Li  Li10  1  0.754558  0.191662  0.429357  1
  Li  Li11  1  0.437104  0.245442  0.429357  1
  Li  Li12  1  0.808338  0.562896  0.429357  1
  Li  Li13  1  0.104308  0.525606  0.929739  1
  Li  Li14  1  0.474394  0.578702  0.929739  1
  Li  Li15  1  0.421298  0.895692  0.929739  1
  Li  Li16  1  0.578702  0.474394  0.570261  1
  Li  Li17  1  0.895692  0.421298  0.570261  1
  Li  Li18  1  0.525606  0.104308  0.570261  1
  Li  Li19  1  0.895692  0.474394  0.070261  1
  Li  Li20  1  0.525606  0.421298  0.070261  1
  Li  Li21  1  0.578702  0.104308  0.070261  1
  Li  Li22  1  0.421298  0.525606  0.429739  1
  Li  Li23  1  0.104308  0.578702  0.429739  1
  Li  Li24  1  0.474394  0.895692  0.429739  1
  Li  Li25  1  0.770439  0.857707  0.929207  1
  Li  Li26  1  0.142293  0.912732  0.929207  1
  Li  Li27  1  0.087268  0.229561  0.929207  1
  Li  Li28  1  0.912732  0.142293  0.570793  1
  Li  Li29  1  0.229561  0.087268  0.570793  1
  Li  Li30  1  0.857707  0.770439  0.570793  1
  Li  Li31  1  0.229561  0.142293  0.070793  1
  Li  Li32  1  0.857707  0.087268  0.070793  1
  Li  Li33  1  0.912732  0.770439  0.070793  1
  Li  Li34  1  0.087268  0.857707  0.429207  1
  Li  Li35  1  0.770439  0.912732  0.429207  1
  Li  Li36  1  0.142293  0.229561  0.429207  1
  O  O37  1  0.455083  0.248053  0.622554  1
  O  O38  1  0.751947  0.207031  0.622554  1
  O  O39  1  0.792969  0.544917  0.622554  1
  O  O40  1  0.207031  0.751947  0.877446  1
  O  O41  1  0.544917  0.792969  0.877446  1
  O  O42  1  0.248053  0.455083  0.877446  1
  O  O43  1  0.544917  0.751947  0.377446  1
  O  O44  1  0.248053  0.792969  0.377446  1
  O  O45  1  0.207031  0.455083  0.377446  1
  O  O46  1  0.792969  0.248053  0.122554  1
  O  O47  1  0.455083  0.207031  0.122554  1
  O  O48  1  0.751947  0.544917  0.122554  1
  O  O49  1  0.121733  0.581519  0.622564  1
  O  O50  1  0.418481  0.540214  0.622564  1
  O  O51  1  0.459786  0.878267  0.622564  1
  O  O52  1  0.540214  0.418481  0.877436  1
  O  O53  1  0.878267  0.459786  0.877436  1
  O  O54  1  0.581519  0.121733  0.877436  1
  O  O55  1  0.878267  0.418481  0.377436  1
  O  O56  1  0.581519  0.459786  0.377436  1
  O  O57  1  0.540214  0.121733  0.377436  1
  O  O58  1  0.459786  0.581519  0.122564  1
  O  O59  1  0.121733  0.540214  0.122564  1
  O  O60  1  0.418481  0.878267  0.122564  1
  O  O61  1  0.788388  0.915105  0.622552  1
  O  O62  1  0.084895  0.873283  0.622552  1
  O  O63  1  0.126717  0.211612  0.622552  1
  O  O64  1  0.873283  0.084895  0.877448  1
  O  O65  1  0.211612  0.126717  0.877448  1
  O  O66  1  0.915105  0.788388  0.877448  1
  O  O67  1  0.211612  0.084895  0.377448  1
  O  O68  1  0.915105  0.126717  0.377448  1
  O  O69  1  0.873283  0.788388  0.377448  1
  O  O70  1  0.126717  0.915105  0.122552  1
  O  O71  1  0.788388  0.873283  0.122552  1
  O  O72  1  0.084895  0.211612  0.122552  1
  In  In73  1  0.333418  0.333418  0.750000  1
  In  In74  1  0.000000  0.666582  0.750000  1
  In  In75  1  0.666582  0.000000  0.750000  1
  In  In76  1  0.666582  0.666582  0.250000  1
  In  In77  1  0.000000  0.333418  0.250000  1
  In  In78  1  0.333418  0.000000  0.250000  1
  In  In79  1  0.333333  0.666667  0.750100  1
  In  In80  1  0.666667  0.333333  0.749900  1
  In  In81  1  0.666667  0.333333  0.249900  1
  In  In82  1  0.333333  0.666667  0.250100  1
  In  In83  1  0.000000  0.000000  0.750000  1
  In  In84  1  0.000000  0.000000  0.250000  1
