# generated using pymatgen
data_NaAc
_symmetry_space_group_name_H-M   'P 1'
_cell_length_a   3.88358651
_cell_length_b   3.88361194
_cell_length_c   6.51785711
_cell_angle_alpha   90.01482877
_cell_angle_beta   89.98516373
_cell_angle_gamma   119.99988362
_symmetry_Int_Tables_number   1
_chemical_formula_structural   NaAc
_chemical_formula_sum   'Na1 Ac1'
_cell_volume   85.13433912
_cell_formula_units_Z   1
loop_
 _symmetry_equiv_pos_site_id
 _symmetry_equiv_pos_as_xyz
  1  'x, y, z'
loop_
 _atom_site_type_symbol
 _atom_site_label
 _atom_site_symmetry_multiplicity
 _atom_site_fract_x
 _atom_site_fract_y
 _atom_site_fract_z
 _atom_site_occupancy
  Na  Na1  1  0.333332  0.666668  0.250001  1
  Ac  Ac2  1  0.666669  0.333331  0.749999  1
