# generated using pymatgen
data_Li5InO4
_symmetry_space_group_name_H-M   'P 1'
_cell_length_a   6.95739208
_cell_length_b   6.63432027
_cell_length_c   4.81504343
_cell_angle_alpha   90.00000000
_cell_angle_beta   90.00000000
_cell_angle_gamma   90.00000000
_symmetry_Int_Tables_number   1
_chemical_formula_structural   Li5InO4
_chemical_formula_sum   'Li10 In2 O8'
_cell_volume   222.25069119
_cell_formula_units_Z   2
loop_
 _symmetry_equiv_pos_site_id
 _symmetry_equiv_pos_as_xyz
  1  'x, y, z'
loop_
 _atom_site_type_symbol
 _atom_site_label
 _atom_site_symmetry_multiplicity
 _atom_site_fract_x
 _atom_site_fract_y
 _atom_site_fract_z
 _atom_site_occupancy
  Li  Li1  1  0.056316  0.012041  0.750743  1
  Li  Li2  1  0.056316  0.487959  0.750743  1
  Li  Li3  1  0.250000  0.750000  0.234237  1
  Li  Li4  1  0.443684  0.012041  0.750743  1
  Li  Li5  1  0.443684  0.487959  0.750743  1
  Li  Li6  1  0.556316  0.987959  0.249257  1
  Li  Li7  1  0.556316  0.512041  0.249257  1
  Li  Li8  1  0.750000  0.250000  0.765763  1
  Li  Li9  1  0.943684  0.512041  0.249257  1
  Li  Li10  1  0.943684  0.987959  0.249257  1
  In  In11  1  0.250000  0.250000  0.228328  1
  In  In12  1  0.750000  0.750000  0.771672  1
  O  O13  1  0.997995  0.250000  0.991393  1
  O  O14  1  0.250000  0.991741  0.464404  1
  O  O15  1  0.250000  0.508259  0.464404  1
  O  O16  1  0.502005  0.250000  0.991393  1
  O  O17  1  0.497995  0.750000  0.008607  1
  O  O18  1  0.750000  0.008259  0.535596  1
  O  O19  1  0.750000  0.491741  0.535596  1
  O  O20  1  0.002005  0.750000  0.008607  1
