# generated using pymatgen
data_NaTm
_symmetry_space_group_name_H-M   'P 1'
_cell_length_a   3.43272221
_cell_length_b   3.43272047
_cell_length_c   6.21959797
_cell_angle_alpha   90.00013615
_cell_angle_beta   89.99986352
_cell_angle_gamma   119.99334311
_symmetry_Int_Tables_number   1
_chemical_formula_structural   NaTm
_chemical_formula_sum   'Na1 Tm1'
_cell_volume   63.47448299
_cell_formula_units_Z   1
loop_
 _symmetry_equiv_pos_site_id
 _symmetry_equiv_pos_as_xyz
  1  'x, y, z'
loop_
 _atom_site_type_symbol
 _atom_site_label
 _atom_site_symmetry_multiplicity
 _atom_site_fract_x
 _atom_site_fract_y
 _atom_site_fract_z
 _atom_site_occupancy
  Na  Na1  1  0.666669  0.333330  0.750000  1
  Tm  Tm2  1  0.333333  0.666669  0.250001  1
