# generated using pymatgen
data_LiInO2
_symmetry_space_group_name_H-M   'P 1'
_cell_length_a   4.38402082
_cell_length_b   4.38402082
_cell_length_c   5.66804644
_cell_angle_alpha   112.75125748
_cell_angle_beta   112.75125747
_cell_angle_gamma   89.99999995
_symmetry_Int_Tables_number   1
_chemical_formula_structural   LiInO2
_chemical_formula_sum   'Li2 In2 O4'
_cell_volume   91.20104535
_cell_formula_units_Z   2
loop_
 _symmetry_equiv_pos_site_id
 _symmetry_equiv_pos_as_xyz
  1  'x, y, z'
loop_
 _atom_site_type_symbol
 _atom_site_label
 _atom_site_symmetry_multiplicity
 _atom_site_fract_x
 _atom_site_fract_y
 _atom_site_fract_z
 _atom_site_occupancy
  Li  Li1  1  0.875000  0.125000  0.750000  1
  Li  Li2  1  0.125000  0.875000  0.250000  1
  O  O3  1  0.142698  0.392698  0.285395  1
  O  O4  1  0.392698  0.142698  0.785395  1
  O  O5  1  0.607302  0.857302  0.214605  1
  O  O6  1  0.857302  0.607302  0.714605  1
  In  In7  1  0.625000  0.375000  0.250000  1
  In  In8  1  0.375000  0.625000  0.750000  1
