# generated using pymatgen
data_Li2IrO3
_symmetry_space_group_name_H-M   'P 1'
_cell_length_a   25.91526747
_cell_length_b   5.18647502
_cell_length_c   5.18647537
_cell_angle_alpha   120.46674946
_cell_angle_beta   99.43648655
_cell_angle_gamma   99.43648337
_symmetry_Int_Tables_number   1
_chemical_formula_structural   Li2IrO3
_chemical_formula_sum   'Li20 Ir10 O30'
_cell_volume   567.14423164
_cell_formula_units_Z   10
loop_
 _symmetry_equiv_pos_site_id
 _symmetry_equiv_pos_as_xyz
  1  'x, y, z'
loop_
 _atom_site_type_symbol
 _atom_site_label
 _atom_site_symmetry_multiplicity
 _atom_site_fract_x
 _atom_site_fract_y
 _atom_site_fract_z
 _atom_site_occupancy
  Ir  Ir1  1  0.000000  0.665751  0.334249  1
  Ir  Ir2  1  0.000000  0.001039  0.998961  1
  Ir  Ir3  1  0.200008  0.332395  0.667651  1
  Ir  Ir4  1  0.199961  0.666449  0.331779  1
  Ir  Ir5  1  0.400007  0.332794  0.667275  1
  Ir  Ir6  1  0.399998  0.667249  0.332734  1
  Ir  Ir7  1  0.600002  0.667266  0.332751  1
  Ir  Ir8  1  0.599993  0.332725  0.667206  1
  Ir  Ir9  1  0.799992  0.332349  0.667605  1
  Ir  Ir10  1  0.800039  0.668221  0.333551  1
  Li  Li11  1  1.000000  0.333588  0.666412  1
  Li  Li12  1  0.099514  0.166113  0.829537  1
  Li  Li13  1  0.100117  0.507412  0.513124  1
  Li  Li14  1  0.099722  0.823419  0.153194  1
  Li  Li15  1  0.199820  0.999911  0.999874  1
  Li  Li16  1  0.300003  0.160790  0.839004  1
  Li  Li17  1  0.299963  0.499737  0.499826  1
  Li  Li18  1  0.300048  0.839305  0.160982  1
  Li  Li19  1  0.400025  0.000035  0.000004  1
  Li  Li20  1  0.500000  0.160933  0.839067  1
  Li  Li21  1  0.500000  0.500016  0.499984  1
  Li  Li22  1  0.500000  0.839070  0.160930  1
  Li  Li23  1  0.599975  0.999996  0.999965  1
  Li  Li24  1  0.699997  0.160996  0.839210  1
  Li  Li25  1  0.700037  0.500174  0.500263  1
  Li  Li26  1  0.699952  0.839018  0.160695  1
  Li  Li27  1  0.800180  0.000126  0.000089  1
  Li  Li28  1  0.900486  0.170463  0.833887  1
  Li  Li29  1  0.899883  0.486876  0.492588  1
  Li  Li30  1  0.900278  0.846807  0.176581  1
  O  O31  1  0.047685  0.756566  0.746981  1
  O  O32  1  0.047300  0.412657  0.089954  1
  O  O33  1  0.046352  0.063311  0.396645  1
  O  O34  1  0.152827  0.920846  0.576567  1
  O  O35  1  0.152216  0.576427  0.920268  1
  O  O36  1  0.153573  0.269703  0.270744  1
  O  O37  1  0.246776  0.731953  0.731378  1
  O  O38  1  0.247102  0.078593  0.422607  1
  O  O39  1  0.247322  0.422586  0.078621  1
  O  O40  1  0.352845  0.922199  0.577655  1
  O  O41  1  0.352843  0.577692  0.922134  1
  O  O42  1  0.353034  0.267874  0.267909  1
  O  O43  1  0.446987  0.732092  0.732050  1
  O  O44  1  0.447159  0.077869  0.422356  1
  O  O45  1  0.447164  0.422360  0.077882  1
  O  O46  1  0.552836  0.922118  0.577640  1
  O  O47  1  0.552841  0.577644  0.922131  1
  O  O48  1  0.553013  0.267950  0.267908  1
  O  O49  1  0.646966  0.732091  0.732126  1
  O  O50  1  0.647155  0.422345  0.077801  1
  O  O51  1  0.647157  0.077866  0.422308  1
  O  O52  1  0.752678  0.921379  0.577414  1
  O  O53  1  0.752898  0.577393  0.921407  1
  O  O54  1  0.753224  0.268622  0.268047  1
  O  O55  1  0.846427  0.729256  0.730297  1
  O  O56  1  0.847784  0.079732  0.423573  1
  O  O57  1  0.847173  0.423433  0.079154  1
  O  O58  1  0.952700  0.910046  0.587343  1
  O  O59  1  0.953648  0.603355  0.936689  1
  O  O60  1  0.952315  0.253019  0.243434  1
