# generated using pymatgen
data_Li3LaO3
_symmetry_space_group_name_H-M   'P 1'
_cell_length_a   10.52719077
_cell_length_b   6.07942535
_cell_length_c   11.15924522
_cell_angle_alpha   90.06650670
_cell_angle_beta   89.93368217
_cell_angle_gamma   150.11882288
_symmetry_Int_Tables_number   1
_chemical_formula_structural   Li3LaO3
_chemical_formula_sum   'Li12 La4 O12'
_cell_volume   355.80807448
_cell_formula_units_Z   4
loop_
 _symmetry_equiv_pos_site_id
 _symmetry_equiv_pos_as_xyz
  1  'x, y, z'
loop_
 _atom_site_type_symbol
 _atom_site_label
 _atom_site_symmetry_multiplicity
 _atom_site_fract_x
 _atom_site_fract_y
 _atom_site_fract_z
 _atom_site_occupancy
  Li  Li1  1  0.364422  0.423694  0.442384  1
  Li  Li2  1  0.307570  0.243432  0.940658  1
  Li  Li3  1  0.057424  0.425586  0.941084  1
  Li  Li4  1  0.688566  0.745961  0.059539  1
  Li  Li5  1  0.944310  0.251731  0.441165  1
  Li  Li6  1  0.630577  0.574740  0.559636  1
  Li  Li7  1  0.311303  0.681296  0.561605  1
  Li  Li8  1  0.689003  0.322523  0.442011  1
  Li  Li9  1  0.630467  0.318707  0.940967  1
  Li  Li10  1  0.361703  0.667569  0.058077  1
  Li  Li11  1  0.942322  0.574671  0.059413  1
  Li  Li12  1  0.054281  0.742385  0.559779  1
  La  La13  1  0.666520  0.000450  0.751593  1
  La  La14  1  0.332122  -0.001459  0.250918  1
  La  La15  1  0.001799  0.001565  0.250191  1
  La  La16  1  0.997800  -0.002742  0.750713  1
  O  O17  1  0.332228  0.368600  0.617219  1
  O  O18  1  0.296799  0.257728  0.115032  1
  O  O19  1  0.698831  0.733744  0.884868  1
  O  O20  1  0.665218  0.628246  0.384209  1
  O  O21  1  0.963109  0.263450  0.616895  1
  O  O22  1  0.038546  0.371694  0.116021  1
  O  O23  1  0.665044  0.366223  0.116598  1
  O  O24  1  0.299350  0.635097  0.385478  1
  O  O25  1  0.697858  0.362481  0.617502  1
  O  O26  1  0.334948  0.637306  0.884483  1
  O  O27  1  0.964900  0.629332  0.885401  1
  O  O28  1  0.034689  0.735721  0.384912  1
