# generated using pymatgen
data_Li5LaO4
_symmetry_space_group_name_H-M   'P 1'
_cell_length_a   13.84296244
_cell_length_b   13.84296244
_cell_length_c   4.86188794
_cell_angle_alpha   90.00000000
_cell_angle_beta   90.00000000
_cell_angle_gamma   90.00000000
_symmetry_Int_Tables_number   1
_chemical_formula_structural   Li5LaO4
_chemical_formula_sum   'Li40 La8 O32'
_cell_volume   931.67196173
_cell_formula_units_Z   8
loop_
 _symmetry_equiv_pos_site_id
 _symmetry_equiv_pos_as_xyz
  1  'x, y, z'
loop_
 _atom_site_type_symbol
 _atom_site_label
 _atom_site_symmetry_multiplicity
 _atom_site_fract_x
 _atom_site_fract_y
 _atom_site_fract_z
 _atom_site_occupancy
  Li  Li1  1  0.993541  0.006459  0.250000  1
  Li  Li2  1  0.006459  0.993541  0.750000  1
  Li  Li3  1  0.993541  0.493541  0.250000  1
  Li  Li4  1  0.006459  0.506459  0.750000  1
  Li  Li5  1  0.108820  0.360237  0.818193  1
  Li  Li6  1  0.108820  0.139763  0.818193  1
  Li  Li7  1  0.122115  0.622115  0.250000  1
  Li  Li8  1  0.122115  0.877885  0.250000  1
  Li  Li9  1  0.139763  0.108820  0.318193  1
  Li  Li10  1  0.139763  0.391180  0.318193  1
  Li  Li11  1  0.250000  0.250000  0.339263  1
  Li  Li12  1  0.250000  0.750000  0.750000  1
  Li  Li13  1  0.250000  0.750000  0.250000  1
  Li  Li14  1  0.250000  0.250000  0.839263  1
  Li  Li15  1  0.360237  0.108820  0.318193  1
  Li  Li16  1  0.360237  0.391180  0.318193  1
  Li  Li17  1  0.377885  0.622115  0.250000  1
  Li  Li18  1  0.377885  0.877885  0.250000  1
  Li  Li19  1  0.391180  0.139763  0.818193  1
  Li  Li20  1  0.391180  0.360237  0.818193  1
  Li  Li21  1  0.506459  0.493541  0.250000  1
  Li  Li22  1  0.493541  0.506459  0.750000  1
  Li  Li23  1  0.506459  0.006459  0.250000  1
  Li  Li24  1  0.493541  0.993541  0.750000  1
  Li  Li25  1  0.608820  0.639763  0.181807  1
  Li  Li26  1  0.608820  0.860237  0.181807  1
  Li  Li27  1  0.622115  0.122115  0.750000  1
  Li  Li28  1  0.622115  0.377885  0.750000  1
  Li  Li29  1  0.639763  0.608820  0.681807  1
  Li  Li30  1  0.639763  0.891180  0.681807  1
  Li  Li31  1  0.750000  0.250000  0.250000  1
  Li  Li32  1  0.750000  0.250000  0.750000  1
  Li  Li33  1  0.750000  0.750000  0.160737  1
  Li  Li34  1  0.750000  0.750000  0.660737  1
  Li  Li35  1  0.860237  0.608820  0.681807  1
  Li  Li36  1  0.860237  0.891180  0.681807  1
  Li  Li37  1  0.877885  0.122115  0.750000  1
  Li  Li38  1  0.877885  0.377885  0.750000  1
  Li  Li39  1  0.891180  0.639763  0.181807  1
  Li  Li40  1  0.891180  0.860237  0.181807  1
  La  La41  1  0.023767  0.750000  0.704756  1
  La  La42  1  0.250000  0.523767  0.795244  1
  La  La43  1  0.250000  0.976233  0.795244  1
  La  La44  1  0.476233  0.750000  0.704756  1
  La  La45  1  0.523767  0.250000  0.295244  1
  La  La46  1  0.750000  0.023767  0.204756  1
  La  La47  1  0.750000  0.476233  0.204756  1
  La  La48  1  0.976233  0.250000  0.295244  1
  O  O49  1  0.011247  0.112294  0.534415  1
  O  O50  1  0.011247  0.387706  0.534415  1
  O  O51  1  0.112294  0.011247  0.034415  1
  O  O52  1  0.112294  0.488753  0.034415  1
  O  O53  1  0.131952  0.250000  0.083495  1
  O  O54  1  0.138128  0.750000  0.028639  1
  O  O55  1  0.250000  0.131952  0.583495  1
  O  O56  1  0.250000  0.638128  0.471361  1
  O  O57  1  0.250000  0.861872  0.471361  1
  O  O58  1  0.250000  0.368048  0.583495  1
  O  O59  1  0.361872  0.750000  0.028639  1
  O  O60  1  0.368048  0.250000  0.083495  1
  O  O61  1  0.387706  0.488753  0.034415  1
  O  O62  1  0.387706  0.011247  0.034415  1
  O  O63  1  0.488753  0.112294  0.534415  1
  O  O64  1  0.488753  0.387706  0.534415  1
  O  O65  1  0.511247  0.612294  0.465585  1
  O  O66  1  0.511247  0.887706  0.465585  1
  O  O67  1  0.612294  0.988753  0.965585  1
  O  O68  1  0.612294  0.511247  0.965585  1
  O  O69  1  0.631952  0.750000  0.916505  1
  O  O70  1  0.638128  0.250000  0.971361  1
  O  O71  1  0.750000  0.138128  0.528639  1
  O  O72  1  0.750000  0.361872  0.528639  1
  O  O73  1  0.750000  0.631952  0.416505  1
  O  O74  1  0.750000  0.868048  0.416505  1
  O  O75  1  0.861872  0.250000  0.971361  1
  O  O76  1  0.868048  0.750000  0.916505  1
  O  O77  1  0.887706  0.988753  0.965585  1
  O  O78  1  0.887706  0.511247  0.965585  1
  O  O79  1  0.988753  0.612294  0.465585  1
  O  O80  1  0.988753  0.887706  0.465585  1
