# generated using pymatgen
data_Li2BiO3
_symmetry_space_group_name_H-M   'P 1'
_cell_length_a   4.44476210
_cell_length_b   5.43942890
_cell_length_c   3.46602097
_cell_angle_alpha   89.56453909
_cell_angle_beta   90.00369854
_cell_angle_gamma   65.81107838
_symmetry_Int_Tables_number   1
_chemical_formula_structural   Li2BiO3
_chemical_formula_sum   'Li2 Bi1 O3'
_cell_volume   76.43769703
_cell_formula_units_Z   1
loop_
 _symmetry_equiv_pos_site_id
 _symmetry_equiv_pos_as_xyz
  1  'x, y, z'
loop_
 _atom_site_type_symbol
 _atom_site_label
 _atom_site_symmetry_multiplicity
 _atom_site_fract_x
 _atom_site_fract_y
 _atom_site_fract_z
 _atom_site_occupancy
  Li  Li1  1  0.659764  0.689473  0.502732  1
  Li  Li2  1  0.344346  0.310727  0.492490  1
  Bi  Bi3  1  0.000648  0.998458  0.998624  1
  O  O4  1  0.144588  0.704039  0.503770  1
  O  O5  1  0.851280  0.294016  0.495793  1
  O  O6  1  0.501033  0.996662  0.001071  1
