# generated using pymatgen
data_LiLaO2
_symmetry_space_group_name_H-M   'P 1'
_cell_length_a   6.73839730
_cell_length_b   6.21958890
_cell_length_c   6.98770103
_cell_angle_alpha   90.00000000
_cell_angle_beta   121.49699123
_cell_angle_gamma   90.00000000
_symmetry_Int_Tables_number   1
_chemical_formula_structural   LiLaO2
_chemical_formula_sum   'Li4 La4 O8'
_cell_volume   249.70795054
_cell_formula_units_Z   4
loop_
 _symmetry_equiv_pos_site_id
 _symmetry_equiv_pos_as_xyz
  1  'x, y, z'
loop_
 _atom_site_type_symbol
 _atom_site_label
 _atom_site_symmetry_multiplicity
 _atom_site_fract_x
 _atom_site_fract_y
 _atom_site_fract_z
 _atom_site_occupancy
  Li  Li1  1  0.318692  0.829989  0.602788  1
  Li  Li2  1  0.681308  0.329989  0.897212  1
  Li  Li3  1  0.318692  0.670011  0.102788  1
  Li  Li4  1  0.681308  0.170011  0.397212  1
  La  La5  1  0.221092  0.138802  0.959077  1
  La  La6  1  0.221092  0.361198  0.459077  1
  La  La7  1  0.778908  0.638802  0.540923  1
  La  La8  1  0.778908  0.861198  0.040923  1
  O  O9  1  0.033209  0.804134  0.890451  1
  O  O10  1  0.033209  0.695866  0.390451  1
  O  O11  1  0.445083  0.099729  0.762890  1
  O  O12  1  0.554917  0.599729  0.737110  1
  O  O13  1  0.445083  0.400271  0.262890  1
  O  O14  1  0.554917  0.900271  0.237110  1
  O  O15  1  0.966791  0.304134  0.609549  1
  O  O16  1  0.966791  0.195866  0.109549  1
