# generated using pymatgen
data_Li2MnO3
_symmetry_space_group_name_H-M   'P 1'
_cell_length_a   5.00492930
_cell_length_b   5.00492955
_cell_length_c   9.74593624
_cell_angle_alpha   94.79266939
_cell_angle_beta   94.79266948
_cell_angle_gamma   119.92592953
_symmetry_Int_Tables_number   1
_chemical_formula_structural   Li2MnO3
_chemical_formula_sum   'Li8 Mn4 O12'
_cell_volume   208.61144582
_cell_formula_units_Z   4
loop_
 _symmetry_equiv_pos_site_id
 _symmetry_equiv_pos_as_xyz
  1  'x, y, z'
loop_
 _atom_site_type_symbol
 _atom_site_label
 _atom_site_symmetry_multiplicity
 _atom_site_fract_x
 _atom_site_fract_y
 _atom_site_fract_z
 _atom_site_occupancy
  Li  Li1  1  0.839860  0.663673  0.500507  1
  Li  Li2  1  0.250158  0.749842  0.750000  1
  Li  Li3  1  0.160140  0.336327  0.499493  1
  Li  Li4  1  0.336327  0.160140  0.999493  1
  Li  Li5  1  0.663673  0.839860  0.000507  1
  Li  Li6  1  0.749842  0.250158  0.250000  1
  Li  Li7  1  0.000000  0.500000  0.000000  1
  Li  Li8  1  0.500000  0.000000  0.500000  1
  Mn  Mn9  1  0.582936  0.417064  0.750000  1
  Mn  Mn10  1  0.083059  0.916941  0.250000  1
  Mn  Mn11  1  0.916941  0.083059  0.750000  1
  Mn  Mn12  1  0.417064  0.582936  0.250000  1
  O  O13  1  0.070457  0.213216  0.138081  1
  O  O14  1  0.429429  0.286670  0.361863  1
  O  O15  1  0.644831  0.144853  0.863683  1
  O  O16  1  0.144853  0.644831  0.363683  1
  O  O17  1  0.855147  0.355169  0.636317  1
  O  O18  1  0.929543  0.786784  0.861919  1
  O  O19  1  0.286670  0.429429  0.861863  1
  O  O20  1  0.713330  0.570571  0.138137  1
  O  O21  1  0.570571  0.713330  0.638137  1
  O  O22  1  0.213216  0.070457  0.638081  1
  O  O23  1  0.786784  0.929543  0.361919  1
  O  O24  1  0.355169  0.855147  0.136317  1
