# generated using pymatgen
data_NaIn
_symmetry_space_group_name_H-M   'P 1'
_cell_length_a   5.27346568
_cell_length_b   5.27346567
_cell_length_c   5.27346567
_cell_angle_alpha   59.99999995
_cell_angle_beta   59.99999997
_cell_angle_gamma   60.00000000
_symmetry_Int_Tables_number   1
_chemical_formula_structural   NaIn
_chemical_formula_sum   'Na2 In2'
_cell_volume   103.69871433
_cell_formula_units_Z   2
loop_
 _symmetry_equiv_pos_site_id
 _symmetry_equiv_pos_as_xyz
  1  'x, y, z'
loop_
 _atom_site_type_symbol
 _atom_site_label
 _atom_site_symmetry_multiplicity
 _atom_site_fract_x
 _atom_site_fract_y
 _atom_site_fract_z
 _atom_site_occupancy
  Na  Na1  1  0.625000  0.625000  0.625000  1
  Na  Na2  1  0.375000  0.375000  0.375000  1
  In  In3  1  0.125000  0.125000  0.125000  1
  In  In4  1  0.875000  0.875000  0.875000  1
