# generated using pymatgen
data_LiMn2O4
_symmetry_space_group_name_H-M   'P 1'
_cell_length_a   5.86618626
_cell_length_b   5.86589331
_cell_length_c   9.76391986
_cell_angle_alpha   89.99512741
_cell_angle_beta   90.00243171
_cell_angle_gamma   119.99834949
_symmetry_Int_Tables_number   1
_chemical_formula_structural   LiMn2O4
_chemical_formula_sum   'Li4 Mn8 O16'
_cell_volume   290.97258154
_cell_formula_units_Z   4
loop_
 _symmetry_equiv_pos_site_id
 _symmetry_equiv_pos_as_xyz
  1  'x, y, z'
loop_
 _atom_site_type_symbol
 _atom_site_label
 _atom_site_symmetry_multiplicity
 _atom_site_fract_x
 _atom_site_fract_y
 _atom_site_fract_z
 _atom_site_occupancy
  Li  Li1  1  0.333355  0.666708  0.886736  1
  Li  Li2  1  0.999979  0.000005  0.997357  1
  Li  Li3  1  0.000021  0.000026  0.497357  1
  Li  Li4  1  0.666645  0.333354  0.386736  1
  Mn  Mn5  1  0.168861  0.831138  0.215308  1
  Mn  Mn6  1  0.333334  0.666666  0.493150  1
  Mn  Mn7  1  0.168858  0.337739  0.215309  1
  Mn  Mn8  1  0.662242  0.831135  0.215310  1
  Mn  Mn9  1  0.337758  0.168893  0.715310  1
  Mn  Mn10  1  0.666666  0.333331  0.993150  1
  Mn  Mn11  1  0.831139  0.662277  0.715308  1
  Mn  Mn12  1  0.831142  0.168880  0.715309  1
  O  O13  1  0.158097  0.841943  0.606834  1
  O  O14  1  0.033615  0.516814  0.329681  1
  O  O15  1  0.333319  0.666664  0.109439  1
  O  O16  1  0.999986  -0.000001  0.311758  1
  O  O17  1  0.000014  0.000012  0.811758  1
  O  O18  1  0.158078  0.316153  0.606839  1
  O  O19  1  0.483169  0.966372  0.329678  1
  O  O20  1  0.483163  0.516828  0.329684  1
  O  O21  1  0.316139  0.158082  0.106835  1
  O  O22  1  0.683861  0.841942  0.606835  1
  O  O23  1  0.516831  0.483205  0.829678  1
  O  O24  1  0.516837  0.033665  0.829684  1
  O  O25  1  0.666681  0.333345  0.609439  1
  O  O26  1  0.841904  0.683847  0.106834  1
  O  O27  1  0.966385  0.483199  0.829681  1
  O  O28  1  0.841922  0.158075  0.106839  1
