# generated using pymatgen
data_Na2In
_symmetry_space_group_name_H-M   'P 1'
_cell_length_a   8.26167286
_cell_length_b   8.26167310
_cell_length_c   11.74884925
_cell_angle_alpha   90.00000000
_cell_angle_beta   90.00000000
_cell_angle_gamma   114.67236929
_symmetry_Int_Tables_number   1
_chemical_formula_structural   Na2In
_chemical_formula_sum   'Na16 In8'
_cell_volume   728.71287370
_cell_formula_units_Z   8
loop_
 _symmetry_equiv_pos_site_id
 _symmetry_equiv_pos_as_xyz
  1  'x, y, z'
loop_
 _atom_site_type_symbol
 _atom_site_label
 _atom_site_symmetry_multiplicity
 _atom_site_fract_x
 _atom_site_fract_y
 _atom_site_fract_z
 _atom_site_occupancy
  In  In1  1  0.330817  0.757784  0.128516  1
  In  In2  1  0.669183  0.242216  0.628516  1
  In  In3  1  0.757784  0.330817  0.371484  1
  In  In4  1  0.242216  0.669183  0.871484  1
  In  In5  1  0.727125  0.623492  0.526595  1
  In  In6  1  0.272875  0.376508  0.026595  1
  In  In7  1  0.623492  0.727125  0.973405  1
  In  In8  1  0.376508  0.272875  0.473405  1
  Na  Na9  1  0.066222  0.933778  0.000000  1
  Na  Na10  1  0.933778  0.066222  0.500000  1
  Na  Na11  1  0.590686  0.590686  0.250000  1
  Na  Na12  1  0.409314  0.409314  0.750000  1
  Na  Na13  1  0.497833  0.894271  0.418633  1
  Na  Na14  1  0.502167  0.105729  0.918633  1
  Na  Na15  1  0.894271  0.497833  0.081367  1
  Na  Na16  1  0.105729  0.502167  0.581367  1
  Na  Na17  1  0.396975  0.152721  0.207809  1
  Na  Na18  1  0.603025  0.847279  0.707809  1
  Na  Na19  1  0.152721  0.396975  0.292191  1
  Na  Na20  1  0.847279  0.603025  0.792191  1
  Na  Na21  1  0.775358  0.049993  0.167248  1
  Na  Na22  1  0.224642  0.950007  0.667248  1
  Na  Na23  1  0.049993  0.775358  0.332752  1
  Na  Na24  1  0.950007  0.224642  0.832752  1
