# generated using pymatgen
data_Li7Mn11O24
_symmetry_space_group_name_H-M   'P 1'
_cell_length_a   5.79102823
_cell_length_b   17.60818021
_cell_length_c   10.33766930
_cell_angle_alpha   29.75527137
_cell_angle_beta   55.93234671
_cell_angle_gamma   60.42893187
_symmetry_Int_Tables_number   1
_chemical_formula_structural   Li7Mn11O24
_chemical_formula_sum   'Li7 Mn11 O24'
_cell_volume   433.30668348
_cell_formula_units_Z   1
loop_
 _symmetry_equiv_pos_site_id
 _symmetry_equiv_pos_as_xyz
  1  'x, y, z'
loop_
 _atom_site_type_symbol
 _atom_site_label
 _atom_site_symmetry_multiplicity
 _atom_site_fract_x
 _atom_site_fract_y
 _atom_site_fract_z
 _atom_site_occupancy
  Li  Li1  1  0.131852  0.035449  0.062491  1
  Li  Li2  1  0.130013  0.338766  0.111577  1
  Li  Li3  1  0.121859  0.675342  0.115194  1
  Li  Li4  1  0.878193  0.990275  0.886200  1
  Li  Li5  1  0.869574  0.326840  0.889951  1
  Li  Li6  1  0.863486  0.630292  0.939070  1
  Li  Li7  1  0.008862  0.832678  0.500863  1
  Mn  Mn8  1  0.494431  0.160074  0.014898  1
  Mn  Mn9  1  0.505112  0.996437  0.495785  1
  Mn  Mn10  1  -0.000198  0.332925  0.500486  1
  Mn  Mn11  1  0.513057  0.171039  0.479843  1
  Mn  Mn12  1  0.505170  0.505664  0.986370  1
  Mn  Mn13  1  0.012856  0.996797  0.495656  1
  Mn  Mn14  1  0.499833  0.332744  0.500914  1
  Mn  Mn15  1  0.986702  0.669136  0.505632  1
  Mn  Mn16  1  0.486617  0.494663  0.521395  1
  Mn  Mn17  1  0.500099  0.832934  0.000528  1
  Mn  Mn18  1  0.495297  0.669005  0.505486  1
  O  O19  1  0.230103  0.016953  0.246853  1
  O  O20  1  0.264983  0.148762  0.261534  1
  O  O21  1  0.723729  0.016730  0.247049  1
  O  O22  1  0.284000  0.333847  0.244506  1
  O  O23  1  0.735051  0.148457  0.291606  1
  O  O24  1  0.282346  0.186350  0.687384  1
  O  O25  1  0.276636  0.489754  0.239866  1
  O  O26  1  0.725143  0.333556  0.244288  1
  O  O27  1  0.274368  0.332236  0.756921  1
  O  O28  1  0.252467  0.663767  0.277932  1
  O  O29  1  0.717181  0.479263  0.314068  1
  O  O30  1  0.723403  0.175887  0.761521  1
  O  O31  1  0.264740  0.517196  0.709749  1
  O  O32  1  0.234926  0.815661  0.291781  1
  O  O33  1  0.715521  0.331737  0.756983  1
  O  O34  1  0.700755  0.663637  0.277970  1
  O  O35  1  0.275403  0.648990  0.754142  1
  O  O36  1  0.752625  0.805899  0.288559  1
  O  O37  1  0.247072  0.859752  0.712815  1
  O  O38  1  0.734919  0.516933  0.739762  1
  O  O39  1  0.768993  0.648673  0.754589  1
  O  O40  1  0.299379  0.001979  0.723344  1
  O  O41  1  0.765388  0.850036  0.709530  1
  O  O42  1  0.747589  0.002218  0.723019  1
