# generated using pymatgen
data_Li2Mn3O6
_symmetry_space_group_name_H-M   'P 1'
_cell_length_a   5.08839955
_cell_length_b   5.08840042
_cell_length_c   5.28707761
_cell_angle_alpha   101.72054212
_cell_angle_beta   101.72055068
_cell_angle_gamma   115.92210791
_symmetry_Int_Tables_number   1
_chemical_formula_structural   Li2Mn3O6
_chemical_formula_sum   'Li2 Mn3 O6'
_cell_volume   113.73514839
_cell_formula_units_Z   1
loop_
 _symmetry_equiv_pos_site_id
 _symmetry_equiv_pos_as_xyz
  1  'x, y, z'
loop_
 _atom_site_type_symbol
 _atom_site_label
 _atom_site_symmetry_multiplicity
 _atom_site_fract_x
 _atom_site_fract_y
 _atom_site_fract_z
 _atom_site_occupancy
  Li  Li1  1  0.504489  0.495511  0.500000  1
  Li  Li2  1  0.162177  0.837823  0.500000  1
  Mn  Mn3  1  0.999586  0.000414  0.000000  1
  Mn  Mn4  1  0.667081  0.332919  1.000000  1
  Mn  Mn5  1  0.333333  0.666667  0.000000  1
  O  O6  1  0.292060  0.287856  0.773781  1
  O  O7  1  0.374607  0.045478  0.226219  1
  O  O8  1  0.090140  0.423474  0.197350  1
  O  O9  1  0.954522  0.625393  0.773781  1
  O  O10  1  0.576526  0.909860  0.802650  1
  O  O11  1  0.712144  0.707940  0.226219  1
