# generated using pymatgen
data_LiMn4O8
_symmetry_space_group_name_H-M   'P 1'
_cell_length_a   5.81799901
_cell_length_b   5.84304852
_cell_length_c   6.03564012
_cell_angle_alpha   61.05003903
_cell_angle_beta   59.15967185
_cell_angle_gamma   90.00000827
_symmetry_Int_Tables_number   1
_chemical_formula_structural   LiMn4O8
_chemical_formula_sum   'Li1 Mn4 O8'
_cell_volume   145.50370708
_cell_formula_units_Z   1
loop_
 _symmetry_equiv_pos_site_id
 _symmetry_equiv_pos_as_xyz
  1  'x, y, z'
loop_
 _atom_site_type_symbol
 _atom_site_label
 _atom_site_symmetry_multiplicity
 _atom_site_fract_x
 _atom_site_fract_y
 _atom_site_fract_z
 _atom_site_occupancy
  Li  Li1  1  0.500000  0.500000  0.000000  1
  Mn  Mn2  1  0.000000  0.500000  0.500000  1
  Mn  Mn3  1  0.000000  0.000000  0.500000  1
  Mn  Mn4  1  0.000000  0.000000  0.000000  1
  Mn  Mn5  1  0.500000  0.000000  0.000000  1
  O  O6  1  0.230620  0.753991  0.045085  1
  O  O7  1  0.230620  0.200924  0.045085  1
  O  O8  1  0.246775  0.773121  0.453757  1
  O  O9  1  0.225246  0.261572  0.476857  1
  O  O10  1  0.774754  0.738428  0.523143  1
  O  O11  1  0.753225  0.226879  0.546243  1
  O  O12  1  0.769380  0.799076  0.954915  1
  O  O13  1  0.769380  0.246009  0.954915  1
