# generated using pymatgen
data_Na3Cl2
_symmetry_space_group_name_H-M   'P 1'
_cell_length_a   3.70536822
_cell_length_b   8.09116914
_cell_length_c   8.09116914
_cell_angle_alpha   90.00000000
_cell_angle_beta   90.00000000
_cell_angle_gamma   90.00000000
_symmetry_Int_Tables_number   1
_chemical_formula_structural   Na3Cl2
_chemical_formula_sum   'Na6 Cl4'
_cell_volume   242.57940815
_cell_formula_units_Z   2
loop_
 _symmetry_equiv_pos_site_id
 _symmetry_equiv_pos_as_xyz
  1  'x, y, z'
loop_
 _atom_site_type_symbol
 _atom_site_label
 _atom_site_symmetry_multiplicity
 _atom_site_fract_x
 _atom_site_fract_y
 _atom_site_fract_z
 _atom_site_occupancy
  Na  Na1  1  0.500000  0.326112  0.885098  1
  Na  Na2  1  0.500000  0.673888  0.114902  1
  Na  Na3  1  0.500000  0.885098  0.673888  1
  Na  Na4  1  0.500000  0.114902  0.326112  1
  Na  Na5  1  0.500000  0.500000  0.500000  1
  Na  Na6  1  -0.000000  -0.000000  -0.000000  1
  Cl  Cl7  1  -0.000000  0.595425  0.797490  1
  Cl  Cl8  1  -0.000000  0.404575  0.202510  1
  Cl  Cl9  1  -0.000000  0.797490  0.404575  1
  Cl  Cl10  1  -0.000000  0.202510  0.595425  1
