# generated using pymatgen
data_Li4Mn13O24
_symmetry_space_group_name_H-M   'P 1'
_cell_length_a   6.03020013
_cell_length_b   17.97489179
_cell_length_c   10.25451430
_cell_angle_alpha   30.10957867
_cell_angle_beta   54.45589952
_cell_angle_gamma   59.28049835
_symmetry_Int_Tables_number   1
_chemical_formula_structural   Li4Mn13O24
_chemical_formula_sum   'Li4 Mn13 O24'
_cell_volume   453.61108286
_cell_formula_units_Z   1
loop_
 _symmetry_equiv_pos_site_id
 _symmetry_equiv_pos_as_xyz
  1  'x, y, z'
loop_
 _atom_site_type_symbol
 _atom_site_label
 _atom_site_symmetry_multiplicity
 _atom_site_fract_x
 _atom_site_fract_y
 _atom_site_fract_z
 _atom_site_occupancy
  Li  Li1  1  0.131946  0.336699  0.119204  1
  Li  Li2  1  0.127353  0.664271  0.127806  1
  Li  Li3  1  0.866471  0.332286  0.878549  1
  Li  Li4  1  0.869316  0.669521  0.873626  1
  Mn  Mn5  1  0.493714  0.165804  0.007124  1
  Mn  Mn6  1  0.497547  0.999645  0.501414  1
  Mn  Mn7  1  0.004026  0.340166  0.488568  1
  Mn  Mn8  1  0.503417  0.510916  0.987548  1
  Mn  Mn9  1  0.500517  0.176269  0.481688  1
  Mn  Mn10  1  0.997301  0.001724  0.498091  1
  Mn  Mn11  1  0.501642  0.341471  0.484832  1
  Mn  Mn12  1  0.499020  0.823550  0.009203  1
  Mn  Mn13  1  0.493591  0.492604  0.513548  1
  Mn  Mn14  1  0.496871  0.660573  0.507670  1
  Mn  Mn15  1  0.496002  0.835564  0.503006  1
  Mn  Mn16  1  0.004176  0.659412  0.507380  1
  Mn  Mn17  1  0.865905  0.000311  0.878789  1
  O  O18  1  0.267979  0.003149  0.266127  1
  O  O19  1  0.276445  0.151998  0.260412  1
  O  O20  1  0.695978  0.999140  0.268906  1
  O  O21  1  0.276029  0.352543  0.230823  1
  O  O22  1  0.279148  0.202831  0.675051  1
  O  O23  1  0.287804  0.495697  0.238820  1
  O  O24  1  0.714742  0.149433  0.289158  1
  O  O25  1  0.721797  0.355784  0.231084  1
  O  O26  1  0.291206  0.330947  0.741219  1
  O  O27  1  0.256367  0.642991  0.295777  1
  O  O28  1  0.711863  0.181981  0.745007  1
  O  O29  1  0.274734  0.498771  0.729580  1
  O  O30  1  0.267584  0.797373  0.281003  1
  O  O31  1  0.729783  0.478053  0.298287  1
  O  O32  1  0.727289  0.326332  0.748216  1
  O  O33  1  0.712226  0.648639  0.278401  1
  O  O34  1  0.290829  0.674336  0.736388  1
  O  O35  1  0.275768  0.852344  0.712261  1
  O  O36  1  0.732830  0.522861  0.733779  1
  O  O37  1  0.724217  0.824266  0.286343  1
  O  O38  1  0.728292  0.670686  0.734543  1
  O  O39  1  0.277837  0.993601  0.744579  1
  O  O40  1  0.720673  0.849688  0.739112  1
  O  O41  1  0.741746  0.008689  0.720204  1
