# generated using pymatgen
data_LiMnO2
_symmetry_space_group_name_H-M   'P 1'
_cell_length_a   2.87178432
_cell_length_b   32.44334878
_cell_length_c   5.82278525
_cell_angle_alpha   90.00000000
_cell_angle_beta   90.00000000
_cell_angle_gamma   90.00000000
_symmetry_Int_Tables_number   1
_chemical_formula_structural   LiMnO2
_chemical_formula_sum   'Li14 Mn14 O28'
_cell_volume   542.51065041
_cell_formula_units_Z   14
loop_
 _symmetry_equiv_pos_site_id
 _symmetry_equiv_pos_as_xyz
  1  'x, y, z'
loop_
 _atom_site_type_symbol
 _atom_site_label
 _atom_site_symmetry_multiplicity
 _atom_site_fract_x
 _atom_site_fract_y
 _atom_site_fract_z
 _atom_site_occupancy
  Li  Li1  1  0.250000  0.036903  0.639507  1
  Li  Li2  1  0.250000  0.178571  0.113669  1
  Li  Li3  1  0.250000  0.320240  0.639507  1
  Li  Li4  1  0.250000  0.463779  0.118494  1
  Li  Li5  1  0.250000  0.606920  0.116335  1
  Li  Li6  1  0.250000  0.750223  0.116335  1
  Li  Li7  1  0.250000  0.893364  0.118494  1
  Li  Li8  1  0.750000  0.108036  0.873493  1
  Li  Li9  1  0.750000  0.390306  0.879156  1
  Li  Li10  1  0.750000  0.534506  0.877541  1
  Li  Li11  1  0.750000  0.249107  0.873493  1
  Li  Li12  1  0.750000  0.678571  0.875873  1
  Li  Li13  1  0.750000  0.822637  0.877541  1
  Li  Li14  1  0.750000  0.966837  0.879156  1
  Mn  Mn15  1  0.250000  0.037816  0.119836  1
  Mn  Mn16  1  0.250000  0.319327  0.119836  1
  Mn  Mn17  1  0.250000  0.178571  0.635359  1
  Mn  Mn18  1  0.250000  0.462529  0.635748  1
  Mn  Mn19  1  0.250000  0.606480  0.632232  1
  Mn  Mn20  1  0.250000  0.750663  0.632232  1
  Mn  Mn21  1  0.250000  0.894614  0.635748  1
  Mn  Mn22  1  0.750000  0.108346  0.374651  1
  Mn  Mn23  1  0.750000  0.248797  0.374651  1
  Mn  Mn24  1  0.750000  0.390620  0.377556  1
  Mn  Mn25  1  0.750000  0.534305  0.362425  1
  Mn  Mn26  1  0.750000  0.678571  0.360533  1
  Mn  Mn27  1  0.750000  0.822838  0.362425  1
  Mn  Mn28  1  0.750000  0.966523  0.377556  1
  O  O29  1  0.250000  0.108903  0.144071  1
  O  O30  1  0.250000  0.107686  0.604651  1
  O  O31  1  0.250000  0.248240  0.144071  1
  O  O32  1  0.250000  0.249457  0.604651  1
  O  O33  1  0.250000  0.390850  0.147542  1
  O  O34  1  0.250000  0.390273  0.607798  1
  O  O35  1  0.250000  0.534015  0.138111  1
  O  O36  1  0.250000  0.534663  0.598206  1
  O  O37  1  0.250000  0.678571  0.136340  1
  O  O38  1  0.250000  0.678571  0.596212  1
  O  O39  1  0.250000  0.823128  0.138111  1
  O  O40  1  0.250000  0.822480  0.598206  1
  O  O41  1  0.250000  0.966293  0.147542  1
  O  O42  1  0.250000  0.966870  0.607798  1
  O  O43  1  0.750000  0.037578  0.356467  1
  O  O44  1  0.750000  0.037724  0.896324  1
  O  O45  1  0.750000  0.178571  0.398556  1
  O  O46  1  0.750000  0.178571  0.858633  1
  O  O47  1  0.750000  0.319565  0.356467  1
  O  O48  1  0.750000  0.319419  0.896324  1
  O  O49  1  0.750000  0.462606  0.399851  1
  O  O50  1  0.750000  0.462780  0.859593  1
  O  O51  1  0.750000  0.750627  0.396236  1
  O  O52  1  0.750000  0.750602  0.856589  1
  O  O53  1  0.750000  0.894537  0.399851  1
  O  O54  1  0.750000  0.894363  0.859593  1
  O  O55  1  0.750000  0.606516  0.396236  1
  O  O56  1  0.750000  0.606541  0.856589  1
