# generated using pymatgen
data_LiMnO2
_symmetry_space_group_name_H-M   'P 1'
_cell_length_a   5.21148668
_cell_length_b   5.20210555
_cell_length_c   7.85785692
_cell_angle_alpha   108.64055892
_cell_angle_beta   101.41931195
_cell_angle_gamma   100.89521099
_symmetry_Int_Tables_number   1
_chemical_formula_structural   LiMnO2
_chemical_formula_sum   'Li5 Mn5 O10'
_cell_volume   190.42117697
_cell_formula_units_Z   5
loop_
 _symmetry_equiv_pos_site_id
 _symmetry_equiv_pos_as_xyz
  1  'x, y, z'
loop_
 _atom_site_type_symbol
 _atom_site_label
 _atom_site_symmetry_multiplicity
 _atom_site_fract_x
 _atom_site_fract_y
 _atom_site_fract_z
 _atom_site_occupancy
  Li  Li1  1  0.211369  0.899423  0.406537  1
  Li  Li2  1  0.376432  0.279262  0.772231  1
  Li  Li3  1  0.500000  0.500000  0.500000  1
  Li  Li4  1  0.623568  0.720738  0.227769  1
  Li  Li5  1  0.788631  0.100577  0.593463  1
  Mn  Mn6  1  0.096490  0.695283  0.690184  1
  Mn  Mn7  1  0.000000  0.500000  0.000000  1
  Mn  Mn8  1  0.688565  0.888513  0.891249  1
  Mn  Mn9  1  0.311435  0.111487  0.108751  1
  Mn  Mn10  1  0.903510  0.304717  0.309816  1
  O  O11  1  0.052242  0.068201  0.838081  1
  O  O12  1  0.318835  0.684584  0.926110  1
  O  O13  1  0.130902  0.325204  0.540099  1
  O  O14  1  0.215949  0.496629  0.238924  1
  O  O15  1  0.421057  0.885582  0.654905  1
  O  O16  1  0.578943  0.114418  0.345095  1
  O  O17  1  0.784051  0.503371  0.761076  1
  O  O18  1  0.869098  0.674796  0.459901  1
  O  O19  1  0.681165  0.315416  0.073890  1
  O  O20  1  0.947758  0.931799  0.161919  1
