# generated using pymatgen
data_Li3Mn4O8
_symmetry_space_group_name_H-M   'P 1'
_cell_length_a   11.97668315
_cell_length_b   8.82792971
_cell_length_c   10.16435078
_cell_angle_alpha   64.20663907
_cell_angle_beta   30.45412550
_cell_angle_gamma   42.54754474
_symmetry_Int_Tables_number   1
_chemical_formula_structural   Li3Mn4O8
_chemical_formula_sum   'Li6 Mn8 O16'
_cell_volume   299.14748921
_cell_formula_units_Z   2
loop_
 _symmetry_equiv_pos_site_id
 _symmetry_equiv_pos_as_xyz
  1  'x, y, z'
loop_
 _atom_site_type_symbol
 _atom_site_label
 _atom_site_symmetry_multiplicity
 _atom_site_fract_x
 _atom_site_fract_y
 _atom_site_fract_z
 _atom_site_occupancy
  Li  Li1  1  0.497433  0.989915  0.500566  1
  Li  Li2  1  0.246264  0.005211  0.502267  1
  Li  Li3  1  0.247738  0.500305  0.500778  1
  Li  Li4  1  0.999290  0.010362  0.499657  1
  Li  Li5  1  0.748763  0.995791  0.498682  1
  Li  Li6  1  0.747506  0.501867  0.500467  1
  Mn  Mn7  1  0.746995  0.001923  0.000991  1
  Mn  Mn8  1  0.998247  0.500130  0.500147  1
  Mn  Mn9  1  0.500479  0.001474  0.997017  1
  Mn  Mn10  1  0.245895  0.002408  0.001816  1
  Mn  Mn11  1  0.495720  0.502880  0.002892  1
  Mn  Mn12  1  0.999289  0.499741  0.998380  1
  Mn  Mn13  1  0.994784  0.001747  0.003846  1
  Mn  Mn14  1  0.497639  0.502133  0.500778  1
  O  O15  1  0.008846  0.757813  0.977970  1
  O  O16  1  0.753318  0.776233  0.001085  1
  O  O17  1  0.278306  0.240902  0.459554  1
  O  O18  1  0.511006  0.756750  0.976083  1
  O  O19  1  0.514608  0.720372  0.482953  1
  O  O20  1  0.741787  0.227093  0.000050  1
  O  O21  1  0.216278  0.762232  0.542033  1
  O  O22  1  0.014611  0.715254  0.483050  1
  O  O23  1  0.483971  0.246555  0.025298  1
  O  O24  1  0.716711  0.759967  0.541638  1
  O  O25  1  0.244373  0.225524  0.996909  1
  O  O26  1  0.980052  0.284260  0.518609  1
  O  O27  1  0.778549  0.243381  0.459342  1
  O  O28  1  0.250475  0.777033  0.004527  1
  O  O29  1  0.480734  0.286321  0.517930  1
  O  O30  1  0.985717  0.245032  0.023823  1
