# generated using pymatgen
data_Na2O
_symmetry_space_group_name_H-M   'P 1'
_cell_length_a   3.80581279
_cell_length_b   3.80581279
_cell_length_c   8.20602208
_cell_angle_alpha   104.07320388
_cell_angle_beta   75.92679612
_cell_angle_gamma   119.86247479
_symmetry_Int_Tables_number   1
_chemical_formula_structural   Na2O
_chemical_formula_sum   'Na4 O2'
_cell_volume   98.92381466
_cell_formula_units_Z   2
loop_
 _symmetry_equiv_pos_site_id
 _symmetry_equiv_pos_as_xyz
  1  'x, y, z'
loop_
 _atom_site_type_symbol
 _atom_site_label
 _atom_site_symmetry_multiplicity
 _atom_site_fract_x
 _atom_site_fract_y
 _atom_site_fract_z
 _atom_site_occupancy
  Na  Na1  1  0.112273  0.887727  0.678177  1
  Na  Na2  1  0.296555  0.703445  0.104726  1
  Na  Na3  1  0.703445  0.296555  0.895274  1
  Na  Na4  1  0.887727  0.112273  0.321823  1
  O  O5  1  0.593023  0.406977  0.210427  1
  O  O6  1  0.406977  0.593023  0.789573  1
