# generated using pymatgen
data_Li7Mn10O20
_symmetry_space_group_name_H-M   'P 1'
_cell_length_a   20.45383221
_cell_length_b   5.71673067
_cell_length_c   6.26195915
_cell_angle_alpha   61.29517925
_cell_angle_beta   50.18566676
_cell_angle_gamma   43.24032653
_symmetry_Int_Tables_number   1
_chemical_formula_structural   Li7Mn10O20
_chemical_formula_sum   'Li7 Mn10 O20'
_cell_volume   385.16059565
_cell_formula_units_Z   1
loop_
 _symmetry_equiv_pos_site_id
 _symmetry_equiv_pos_as_xyz
  1  'x, y, z'
loop_
 _atom_site_type_symbol
 _atom_site_label
 _atom_site_symmetry_multiplicity
 _atom_site_fract_x
 _atom_site_fract_y
 _atom_site_fract_z
 _atom_site_occupancy
  Li  Li1  1  0.991084  0.001695  0.843643  1
  Li  Li2  1  0.440161  0.012904  0.041783  1
  Li  Li3  1  0.328472  0.465813  0.804379  1
  Li  Li4  1  0.413940  0.616014  0.029340  1
  Li  Li5  1  0.797243  0.055274  0.176684  1
  Li  Li6  1  0.642381  0.697282  0.762541  1
  Li  Li7  1  0.754291  0.977082  0.826148  1
  Mn  Mn8  1  0.011047  0.412749  0.889720  1
  Mn  Mn9  1  0.159629  0.714668  0.305919  1
  Mn  Mn10  1  0.251720  0.132737  0.803476  1
  Mn  Mn11  1  0.227137  0.864988  0.468215  1
  Mn  Mn12  1  0.519666  0.429015  0.341197  1
  Mn  Mn13  1  0.510013  0.956848  0.354172  1
  Mn  Mn14  1  0.614440  0.306582  0.678690  1
  Mn  Mn15  1  0.787602  0.547417  0.211851  1
  Mn  Mn16  1  0.886917  0.330355  0.530483  1
  Mn  Mn17  1  0.994713  0.680057  0.376938  1
  O  O18  1  0.833387  0.372156  0.903159  1
  O  O19  1  0.946898  0.126653  0.198239  1
  O  O20  1  0.170107  0.038347  0.806441  1
  O  O21  1  0.279605  0.134630  0.225142  1
  O  O22  1  0.283167  0.742146  0.077548  1
  O  O23  1  0.183214  0.582681  0.640720  1
  O  O24  1  0.226085  0.366660  0.048797  1
  O  O25  1  0.407646  0.445551  0.414086  1
  O  O26  1  0.568654  0.509123  0.968487  1
  O  O27  1  0.409149  0.906549  0.438856  1
  O  O28  1  0.531611  0.132181  0.934880  1
  O  O29  1  0.612938  0.448056  0.319151  1
  O  O30  1  0.619945  0.958395  0.273121  1
  O  O31  1  0.466268  0.885843  0.727521  1
  O  O32  1  0.859664  0.752955  0.930789  1
  O  O33  1  0.740406  0.271661  0.494524  1
  O  O34  1  0.966702  0.573201  0.208002  1
  O  O35  1  0.757557  0.718602  0.499997  1
  O  O36  1  0.059707  0.246583  0.563751  1
  O  O37  1  0.012835  0.836548  0.551610  1
