# generated using pymatgen
data_Li15Mn21O43
_symmetry_space_group_name_H-M   'P 1'
_cell_length_a   5.89430230
_cell_length_b   5.89282066
_cell_length_c   35.28549776
_cell_angle_alpha   61.27657756
_cell_angle_beta   61.52011808
_cell_angle_gamma   61.80300453
_symmetry_Int_Tables_number   1
_chemical_formula_structural   Li15Mn21O43
_chemical_formula_sum   'Li15 Mn21 O43'
_cell_volume   896.42028048
_cell_formula_units_Z   1
loop_
 _symmetry_equiv_pos_site_id
 _symmetry_equiv_pos_as_xyz
  1  'x, y, z'
loop_
 _atom_site_type_symbol
 _atom_site_label
 _atom_site_symmetry_multiplicity
 _atom_site_fract_x
 _atom_site_fract_y
 _atom_site_fract_z
 _atom_site_occupancy
  Li  Li1  1  0.085425  0.095804  0.017168  1
  Li  Li2  1  0.093391  0.105728  0.180702  1
  Li  Li3  1  0.522078  0.983844  0.087812  1
  Li  Li4  1  0.087776  0.090924  0.350504  1
  Li  Li5  1  0.081567  0.080266  0.516906  1
  Li  Li6  1  0.528142  0.529314  0.330945  1
  Li  Li7  1  0.887952  0.869485  0.146322  1
  Li  Li8  1  0.085742  0.084617  0.678137  1
  Li  Li9  1  0.887269  0.887375  0.309862  1
  Li  Li10  1  0.497325  0.498106  0.584390  1
  Li  Li11  1  0.126735  0.120105  0.853208  1
  Li  Li12  1  0.875497  0.877091  0.484333  1
  Li  Li13  1  0.894758  0.900459  0.645431  1
  Li  Li14  1  0.873661  0.880456  0.814398  1
  Li  Li15  1  0.877637  0.876288  0.980788  1
  Mn  Mn16  1  0.521181  0.516859  0.998719  1
  Mn  Mn17  1  0.502315  0.490828  0.083760  1
  Mn  Mn18  1  0.508810  0.523429  0.163112  1
  Mn  Mn19  1  0.499180  0.503972  0.250008  1
  Mn  Mn20  1  0.986770  0.516002  0.085651  1
  Mn  Mn21  1  0.510092  0.985728  0.253158  1
  Mn  Mn22  1  0.502943  0.504156  0.415381  1
  Mn  Mn23  1  0.979175  0.516356  0.253106  1
  Mn  Mn24  1  0.516733  0.993609  0.418748  1
  Mn  Mn25  1  0.514022  0.511779  0.499608  1
  Mn  Mn26  1  0.992395  0.517590  0.418654  1
  Mn  Mn27  1  0.521582  0.982958  0.586760  1
  Mn  Mn28  1  0.510661  0.985273  0.753244  1
  Mn  Mn29  1  0.513575  0.510489  0.664168  1
  Mn  Mn30  1  0.993905  0.505118  0.584480  1
  Mn  Mn31  1  0.496386  0.497968  0.750252  1
  Mn  Mn32  1  0.499931  0.495081  0.834289  1
  Mn  Mn33  1  0.504353  0.503069  0.917419  1
  Mn  Mn34  1  0.985755  0.510450  0.753089  1
  Mn  Mn35  1  0.507063  0.004318  0.916299  1
  Mn  Mn36  1  0.006472  0.506670  0.915888  1
  O  O37  1  0.251368  0.279991  0.115992  1
  O  O38  1  0.269834  0.700822  0.043569  1
  O  O39  1  0.701418  0.278225  0.042483  1
  O  O40  1  0.292604  0.702216  0.125383  1
  O  O41  1  0.727271  0.290204  0.123972  1
  O  O42  1  0.258539  0.265105  0.283044  1
  O  O43  1  0.259065  0.697120  0.210198  1
  O  O44  1  0.752701  0.701337  0.048907  1
  O  O45  1  0.687439  0.268406  0.210482  1
  O  O46  1  0.738811  0.739982  0.127815  1
  O  O47  1  0.294296  0.748972  0.284030  1
  O  O48  1  0.745235  0.296565  0.284001  1
  O  O49  1  0.264726  0.265000  0.449601  1
  O  O50  1  0.255981  0.703741  0.380182  1
  O  O51  1  0.732641  0.736867  0.215521  1
  O  O52  1  0.702538  0.256878  0.380457  1
  O  O53  1  0.755887  0.754133  0.289882  1
  O  O54  1  0.303757  0.736252  0.454206  1
  O  O55  1  0.735835  0.304476  0.454420  1
  O  O56  1  0.260112  0.250391  0.614858  1
  O  O57  1  0.253633  0.697065  0.539773  1
  O  O58  1  0.738416  0.740290  0.382192  1
  O  O59  1  0.699059  0.248738  0.540837  1
  O  O60  1  0.742163  0.741491  0.462403  1
  O  O61  1  0.296814  0.751222  0.625389  1
  O  O62  1  0.240834  0.239504  0.784316  1
  O  O63  1  0.747399  0.294850  0.626235  1
  O  O64  1  0.258734  0.693608  0.712153  1
  O  O65  1  0.737490  0.749516  0.550770  1
  O  O66  1  0.750893  0.781248  0.621868  1
  O  O67  1  0.695186  0.258882  0.712213  1
  O  O68  1  0.294951  0.727781  0.790128  1
  O  O69  1  0.267837  0.258151  0.877771  1
  O  O70  1  0.727214  0.296460  0.789889  1
  O  O71  1  0.300535  0.245056  0.952708  1
  O  O72  1  0.752842  0.754067  0.715201  1
  O  O73  1  0.270167  0.700850  0.876161  1
  O  O74  1  0.708941  0.262231  0.875365  1
  O  O75  1  0.724537  0.721500  0.798503  1
  O  O76  1  0.297431  0.749714  0.957862  1
  O  O77  1  0.746420  0.301397  0.956768  1
  O  O78  1  0.704483  0.761269  0.881484  1
  O  O79  1  0.763157  0.774314  0.948887  1
