# generated using pymatgen
data_Li4Mn3O8
_symmetry_space_group_name_H-M   'P 1'
_cell_length_a   8.32480612
_cell_length_b   8.32471430
_cell_length_c   8.32470166
_cell_angle_alpha   90.42743243
_cell_angle_beta   90.42749589
_cell_angle_gamma   90.42731533
_symmetry_Int_Tables_number   1
_chemical_formula_structural   Li4Mn3O8
_chemical_formula_sum   'Li16 Mn12 O32'
_cell_volume   576.86701793
_cell_formula_units_Z   4
loop_
 _symmetry_equiv_pos_site_id
 _symmetry_equiv_pos_as_xyz
  1  'x, y, z'
loop_
 _atom_site_type_symbol
 _atom_site_label
 _atom_site_symmetry_multiplicity
 _atom_site_fract_x
 _atom_site_fract_y
 _atom_site_fract_z
 _atom_site_occupancy
  Li  Li1  1  0.011428  0.804348  0.769374  1
  Li  Li2  1  0.195650  0.988564  0.230625  1
  Li  Li3  1  0.999998  0.723930  0.276074  1
  Li  Li4  1  0.387800  0.856202  0.388778  1
  Li  Li5  1  0.143800  0.612204  0.611226  1
  Li  Li6  1  0.500004  0.500005  0.500006  1
  Li  Li7  1  0.388775  0.387798  0.856201  1
  Li  Li8  1  0.612205  0.611227  0.143806  1
  Li  Li9  1  0.230622  0.195654  0.988572  1
  Li  Li10  1  0.804349  0.769375  0.011430  1
  Li  Li11  1  0.723929  0.276068  0.999998  1
  Li  Li12  1  0.276067  0.999999  0.723931  1
  Li  Li13  1  0.856199  0.388774  0.387799  1
  Li  Li14  1  0.611224  0.143806  0.612206  1
  Li  Li15  1  0.769375  0.011425  0.804343  1
  Li  Li16  1  0.988571  0.230626  0.195656  1
  Mn  Mn17  1  0.499998  0.993613  0.006387  1
  Mn  Mn18  1  0.006385  0.500002  0.993614  1
  Mn  Mn19  1  0.257917  0.742086  0.000003  1
  Mn  Mn20  1  0.999999  0.257917  0.742085  1
  Mn  Mn21  1  0.506399  0.749990  0.754722  1
  Mn  Mn22  1  0.250009  0.493605  0.245281  1
  Mn  Mn23  1  0.245283  0.250013  0.493605  1
  Mn  Mn24  1  0.749990  0.754724  0.506402  1
  Mn  Mn25  1  0.493602  0.245283  0.250011  1
  Mn  Mn26  1  0.754721  0.506399  0.749994  1
  Mn  Mn27  1  0.742082  0.000001  0.257916  1
  Mn  Mn28  1  0.993614  0.006391  0.500000  1
  O  O29  1  0.270196  0.970218  0.007699  1
  O  O30  1  0.029785  0.729809  0.992299  1
  O  O31  1  0.506049  0.007538  0.242719  1
  O  O32  1  0.992462  0.493954  0.757283  1
  O  O33  1  0.517338  0.983560  0.778426  1
  O  O34  1  0.016441  0.482660  0.221576  1
  O  O35  1  0.251127  0.724373  0.232854  1
  O  O36  1  0.275633  0.748866  0.767152  1
  O  O37  1  0.729800  0.992300  0.029782  1
  O  O38  1  0.007697  0.270198  0.970218  1
  O  O39  1  0.522548  0.752186  0.530749  1
  O  O40  1  0.247818  0.477459  0.469257  1
  O  O41  1  0.242715  0.506049  0.007539  1
  O  O42  1  0.493950  0.757283  0.992468  1
  O  O43  1  0.232847  0.251133  0.724373  1
  O  O44  1  0.748868  0.767153  0.275634  1
  O  O45  1  0.747277  0.747282  0.747282  1
  O  O46  1  0.252726  0.252726  0.252725  1
  O  O47  1  0.477453  0.469257  0.247815  1
  O  O48  1  0.530750  0.522545  0.752192  1
  O  O49  1  0.983558  0.778431  0.517346  1
  O  O50  1  0.221571  0.016443  0.482658  1
  O  O51  1  0.752192  0.530749  0.522548  1
  O  O52  1  0.469254  0.247816  0.477457  1
  O  O53  1  0.482655  0.221573  0.016441  1
  O  O54  1  0.778428  0.517347  0.983563  1
  O  O55  1  0.724369  0.232853  0.251128  1
  O  O56  1  0.767152  0.275632  0.748867  1
  O  O57  1  0.757285  0.992471  0.493955  1
  O  O58  1  0.007540  0.242721  0.506047  1
  O  O59  1  0.992302  0.029784  0.729807  1
  O  O60  1  0.970214  0.007700  0.270195  1
