# generated using pymatgen
data_Li7Mn5O12
_symmetry_space_group_name_H-M   'P 1'
_cell_length_a   5.10334652
_cell_length_b   5.10334627
_cell_length_c   9.66789182
_cell_angle_alpha   85.06915263
_cell_angle_beta   94.93084245
_cell_angle_gamma   60.64609338
_symmetry_Int_Tables_number   1
_chemical_formula_structural   Li7Mn5O12
_chemical_formula_sum   'Li7 Mn5 O12'
_cell_volume   216.26015836
_cell_formula_units_Z   1
loop_
 _symmetry_equiv_pos_site_id
 _symmetry_equiv_pos_as_xyz
  1  'x, y, z'
loop_
 _atom_site_type_symbol
 _atom_site_label
 _atom_site_symmetry_multiplicity
 _atom_site_fract_x
 _atom_site_fract_y
 _atom_site_fract_z
 _atom_site_occupancy
  Li  Li1  1  0.257288  0.257288  0.750000  1
  Li  Li2  1  0.175428  0.651449  0.514515  1
  Li  Li3  1  0.321563  0.847670  0.984440  1
  Li  Li4  1  0.651449  0.175428  0.985485  1
  Li  Li5  1  0.847670  0.321563  0.515560  1
  Li  Li6  1  0.744060  0.744060  0.250000  1
  Li  Li7  1  0.921141  0.921141  0.750000  1
  Mn  Mn8  1  0.073081  0.073081  0.250000  1
  Mn  Mn9  1  0.004611  0.508033  0.990078  1
  Mn  Mn10  1  0.508033  0.004611  0.509922  1
  Mn  Mn11  1  0.414551  0.414551  0.250000  1
  Mn  Mn12  1  0.580600  0.580600  0.750000  1
  O  O13  1  0.940572  0.251239  0.872782  1
  O  O14  1  0.251239  0.940572  0.627218  1
  O  O15  1  0.159825  0.344091  0.376405  1
  O  O16  1  0.344091  0.159825  0.123595  1
  O  O17  1  0.304117  0.550337  0.866931  1
  O  O18  1  0.550337  0.304117  0.633069  1
  O  O19  1  0.421044  0.720049  0.357386  1
  O  O20  1  0.720049  0.421044  0.142614  1
  O  O21  1  0.650169  0.837839  0.880725  1
  O  O22  1  0.837839  0.650169  0.619275  1
  O  O23  1  0.755629  0.065612  0.371251  1
  O  O24  1  0.065612  0.755629  0.128749  1
