# generated using pymatgen
data_LiMn2O4
_symmetry_space_group_name_H-M   'P 1'
_cell_length_a   10.18755867
_cell_length_b   10.61675511
_cell_length_c   5.27374741
_cell_angle_alpha   32.25039601
_cell_angle_beta   28.19386392
_cell_angle_gamma   16.34721842
_symmetry_Int_Tables_number   1
_chemical_formula_structural   LiMn2O4
_chemical_formula_sum   'Li1 Mn2 O4'
_cell_volume   75.85006428
_cell_formula_units_Z   1
loop_
 _symmetry_equiv_pos_site_id
 _symmetry_equiv_pos_as_xyz
  1  'x, y, z'
loop_
 _atom_site_type_symbol
 _atom_site_label
 _atom_site_symmetry_multiplicity
 _atom_site_fract_x
 _atom_site_fract_y
 _atom_site_fract_z
 _atom_site_occupancy
  Li  Li1  1  0.500002  0.000000  0.499998  1
  Mn  Mn2  1  -0.000000  0.000000  0.000000  1
  Mn  Mn3  1  -0.000000  0.500000  0.000000  1
  O  O4  1  0.273103  0.999999  0.262033  1
  O  O5  1  0.234339  0.499999  0.309617  1
  O  O6  1  0.726900  0.999998  0.737968  1
  O  O7  1  0.765664  0.499998  0.690384  1
