# generated using pymatgen
data_Li6Mn15O32
_symmetry_space_group_name_H-M   'P 1'
_cell_length_a   5.98047037
_cell_length_b   5.89185969
_cell_length_c   19.40674575
_cell_angle_alpha   97.90611195
_cell_angle_beta   97.94381070
_cell_angle_gamma   59.19681469
_symmetry_Int_Tables_number   1
_chemical_formula_structural   Li6Mn15O32
_chemical_formula_sum   'Li6 Mn15 O32'
_cell_volume   579.92141392
_cell_formula_units_Z   1
loop_
 _symmetry_equiv_pos_site_id
 _symmetry_equiv_pos_as_xyz
  1  'x, y, z'
loop_
 _atom_site_type_symbol
 _atom_site_label
 _atom_site_symmetry_multiplicity
 _atom_site_fract_x
 _atom_site_fract_y
 _atom_site_fract_z
 _atom_site_occupancy
  Li  Li1  1  0.848649  0.829349  0.032659  1
  Li  Li2  1  0.902488  0.917331  0.217424  1
  Li  Li3  1  0.588072  0.591017  0.275885  1
  Li  Li4  1  0.659669  0.651633  0.469021  1
  Li  Li5  1  0.090305  0.097786  0.780594  1
  Li  Li6  1  0.162141  0.156269  0.974536  1
  Mn  Mn7  1  0.501679  0.506093  0.004312  1
  Mn  Mn8  1  0.874252  0.373770  0.124971  1
  Mn  Mn9  1  0.375478  0.372874  0.125216  1
  Mn  Mn10  1  0.126402  0.620801  0.375314  1
  Mn  Mn11  1  0.248042  0.242012  0.245752  1
  Mn  Mn12  1  0.374755  0.872978  0.624786  1
  Mn  Mn13  1  0.873763  0.873575  0.624680  1
  Mn  Mn14  1  0.125596  0.125010  0.374414  1
  Mn  Mn15  1  0.622792  0.126042  0.375512  1
  Mn  Mn16  1  0.744956  0.746870  0.748534  1
  Mn  Mn17  1  0.004207  0.000727  0.501297  1
  Mn  Mn18  1  0.874250  0.373399  0.624863  1
  Mn  Mn19  1  0.624100  0.623795  0.875574  1
  Mn  Mn20  1  0.126926  0.623026  0.874692  1
  Mn  Mn21  1  0.624036  0.127053  0.874530  1
  O  O22  1  0.696545  0.632304  0.057743  1
  O  O23  1  0.226891  0.634914  0.057587  1
  O  O24  1  0.407370  0.971340  0.313794  1
  O  O25  1  0.676168  0.216377  0.066683  1
  O  O26  1  0.571567  0.525128  0.175510  1
  O  O27  1  0.959988  0.933050  0.322404  1
  O  O28  1  0.177936  0.222640  0.074732  1
  O  O29  1  0.073619  0.530894  0.183556  1
  O  O30  1  0.523018  0.111279  0.192553  1
  O  O31  1  0.833034  0.833666  0.435385  1
  O  O32  1  0.054423  0.114230  0.192378  1
  O  O33  1  0.275784  0.824322  0.433731  1
  O  O34  1  0.971776  0.429256  0.318132  1
  O  O35  1  0.416478  0.421150  0.318337  1
  O  O36  1  0.287693  0.312131  0.426910  1
  O  O37  1  0.172449  0.731418  0.566823  1
  O  O38  1  0.673525  0.675164  0.569874  1
  O  O39  1  0.843342  0.275704  0.435420  1
  O  O40  1  0.584014  0.579596  0.684603  1
  O  O41  1  0.012039  0.576533  0.683336  1
  O  O42  1  0.736419  0.170989  0.565942  1
  O  O43  1  0.914793  0.916643  0.813834  1
  O  O44  1  0.164842  0.167409  0.564925  1
  O  O45  1  0.473758  0.923897  0.816377  1
  O  O46  1  0.898174  0.471941  0.812797  1
  O  O47  1  0.075693  0.070758  0.679520  1
  O  O48  1  0.798146  0.810580  0.926647  1
  O  O49  1  0.452695  0.442070  0.824203  1
  O  O50  1  0.576030  0.015788  0.682321  1
  O  O51  1  0.349942  0.778937  0.937972  1
  O  O52  1  0.334963  0.325456  0.932444  1
  O  O53  1  0.776730  0.319608  0.931333  1
