# generated using pymatgen
data_Li6Mn9O20
_symmetry_space_group_name_H-M   'P 1'
_cell_length_a   5.90177579
_cell_length_b   5.85164412
_cell_length_c   24.40904998
_cell_angle_alpha   90.96934456
_cell_angle_beta   96.94365385
_cell_angle_gamma   120.28380468
_symmetry_Int_Tables_number   1
_chemical_formula_structural   Li6Mn9O20
_chemical_formula_sum   'Li12 Mn18 O40'
_cell_volume   719.60804093
_cell_formula_units_Z   2
loop_
 _symmetry_equiv_pos_site_id
 _symmetry_equiv_pos_as_xyz
  1  'x, y, z'
loop_
 _atom_site_type_symbol
 _atom_site_label
 _atom_site_symmetry_multiplicity
 _atom_site_fract_x
 _atom_site_fract_y
 _atom_site_fract_z
 _atom_site_occupancy
  Li  Li1  1  0.849056  0.677659  0.020452  1
  Li  Li2  1  0.100000  0.800000  0.400000  1
  Li  Li3  1  0.950872  0.729620  0.172125  1
  Li  Li4  1  0.453237  0.476901  0.429575  1
  Li  Li5  1  0.249128  0.870380  0.627875  1
  Li  Li6  1  0.648662  0.069534  0.227790  1
  Li  Li7  1  0.350944  0.922341  0.779548  1
  Li  Li8  1  0.746763  0.123099  0.370425  1
  Li  Li9  1  0.551338  0.530466  0.572210  1
  Li  Li10  1  0.057663  0.289480  0.825846  1
  Li  Li11  1  0.142337  0.310520  0.974154  1
  Li  Li12  1  0.600000  0.300000  0.900000  1
  Mn  Mn13  1  0.401394  0.703866  0.098922  1
  Mn  Mn14  1  0.403910  0.204894  0.098772  1
  Mn  Mn15  1  0.498926  0.000599  0.997252  1
  Mn  Mn16  1  0.194645  0.597240  0.301184  1
  Mn  Mn17  1  0.299478  0.398768  0.200189  1
  Mn  Mn18  1  0.899756  0.204894  0.098772  1
  Mn  Mn19  1  0.703780  0.597240  0.301184  1
  Mn  Mn20  1  0.197183  0.093157  0.301211  1
  Mn  Mn21  1  0.002817  0.506843  0.498789  1
  Mn  Mn22  1  0.005355  0.002760  0.498816  1
  Mn  Mn23  1  0.798606  0.896134  0.701078  1
  Mn  Mn24  1  0.300244  0.395106  0.701228  1
  Mn  Mn25  1  0.100000  0.800000  0.900000  1
  Mn  Mn26  1  0.496220  0.002760  0.498816  1
  Mn  Mn27  1  0.900522  0.201232  0.599811  1
  Mn  Mn28  1  0.701074  0.599401  0.802748  1
  Mn  Mn29  1  0.600000  0.800000  0.900000  1
  Mn  Mn30  1  0.796090  0.395106  0.701228  1
  O  O31  1  0.239369  0.867430  0.053161  1
  O  O32  1  0.681222  0.867430  0.053161  1
  O  O33  1  0.209746  0.363388  0.056104  1
  O  O34  1  0.114437  0.543779  0.142861  1
  O  O35  1  0.000820  0.744058  0.257581  1
  O  O36  1  0.366958  0.933487  0.342049  1
  O  O37  1  0.572203  0.543779  0.142861  1
  O  O38  1  0.118609  0.090798  0.146422  1
  O  O39  1  0.480182  0.706915  0.253451  1
  O  O40  1  0.683351  0.315685  0.051018  1
  O  O41  1  0.030448  0.258372  0.255837  1
  O  O42  1  0.483762  0.258372  0.255837  1
  O  O43  1  0.291422  0.666513  0.457951  1
  O  O44  1  0.592973  0.042330  0.143616  1
  O  O45  1  0.396045  0.449575  0.342514  1
  O  O46  1  0.199180  0.855942  0.542419  1
  O  O47  1  0.908578  0.933487  0.342049  1
  O  O48  1  0.169552  0.341628  0.544163  1
  O  O49  1  0.908196  0.474434  0.341958  1
  O  O50  1  0.719818  0.893085  0.546549  1
  O  O51  1  0.833042  0.666513  0.457951  1
  O  O52  1  0.291804  0.125566  0.458042  1
  O  O53  1  0.081391  0.509202  0.653578  1
  O  O54  1  0.085563  0.056221  0.657139  1
  O  O55  1  0.394563  0.929807  0.859319  1
  O  O56  1  0.803955  0.150425  0.457486  1
  O  O57  1  0.716238  0.341628  0.544163  1
  O  O58  1  0.607027  0.557670  0.656384  1
  O  O59  1  0.518778  0.732570  0.746839  1
  O  O60  1  0.960631  0.732570  0.746839  1
  O  O61  1  0.516649  0.284315  0.748982  1
  O  O62  1  0.311796  0.677266  0.946326  1
  O  O63  1  0.888204  0.922734  0.853674  1
  O  O64  1  0.440876  0.487669  0.848052  1
  O  O65  1  0.627797  0.056221  0.657139  1
  O  O66  1  0.894844  0.487669  0.848052  1
  O  O67  1  0.805437  0.670193  0.940681  1
  O  O68  1  0.990254  0.236612  0.743896  1
  O  O69  1  0.305156  0.112331  0.951948  1
  O  O70  1  0.759124  0.112331  0.951948  1
