# generated using pymatgen
data_Li2Mn3O6
_symmetry_space_group_name_H-M   'P 1'
_cell_length_a   6.55275570
_cell_length_b   6.63409474
_cell_length_c   15.96365761
_cell_angle_alpha   82.94172089
_cell_angle_beta   95.53890629
_cell_angle_gamma   97.70433091
_symmetry_Int_Tables_number   1
_chemical_formula_structural   Li2Mn3O6
_chemical_formula_sum   'Li12 Mn18 O36'
_cell_volume   680.22524927
_cell_formula_units_Z   6
loop_
 _symmetry_equiv_pos_site_id
 _symmetry_equiv_pos_as_xyz
  1  'x, y, z'
loop_
 _atom_site_type_symbol
 _atom_site_label
 _atom_site_symmetry_multiplicity
 _atom_site_fract_x
 _atom_site_fract_y
 _atom_site_fract_z
 _atom_site_occupancy
  Li  Li1  1  0.912532  0.413425  0.583806  1
  Li  Li2  1  0.755825  0.253494  0.082852  1
  Li  Li3  1  0.749796  0.249740  0.416843  1
  Li  Li4  1  0.748108  0.250451  0.750971  1
  Li  Li5  1  0.587270  0.086635  0.249521  1
  Li  Li6  1  0.578148  0.078885  0.916601  1
  Li  Li7  1  0.411216  0.912888  0.084391  1
  Li  Li8  1  0.414825  0.912694  0.420377  1
  Li  Li9  1  0.414010  0.917296  0.745743  1
  Li  Li10  1  0.083469  0.583252  0.083657  1
  Li  Li11  1  0.085580  0.587290  0.413629  1
  Li  Li12  1  0.084570  0.583932  0.753574  1
  Mn  Mn13  1  0.995653  0.003853  0.333845  1
  Mn  Mn14  1  0.996182  0.002856  0.665243  1
  Mn  Mn15  1  0.848389  0.819660  0.168061  1
  Mn  Mn16  1  0.840016  0.823738  0.501573  1
  Mn  Mn17  1  0.840422  0.824316  0.835069  1
  Mn  Mn18  1  0.659936  0.676218  0.332072  1
  Mn  Mn19  1  0.654528  0.678017  0.665765  1
  Mn  Mn20  1  0.502671  0.497426  0.167892  1
  Mn  Mn21  1  0.664205  0.671154  0.998289  1
  Mn  Mn22  1  0.503994  0.495287  0.499907  1
  Mn  Mn23  1  0.504900  0.490887  0.834135  1
  Mn  Mn24  1  0.325109  0.342522  0.331712  1
  Mn  Mn25  1  0.330333  0.343915  0.664829  1
  Mn  Mn26  1  0.169816  0.155087  0.168414  1
  Mn  Mn27  1  0.317635  0.347175  0.998228  1
  Mn  Mn28  1  0.174685  0.158434  0.501449  1
  Mn  Mn29  1  0.172875  0.160492  0.832795  1
  Mn  Mn30  1  0.997301  0.011872  0.998355  1
  O  O31  1  0.890678  0.098109  0.200677  1
  O  O32  1  0.936461  0.728562  0.301960  1
  O  O33  1  0.905989  0.103595  0.546625  1
  O  O34  1  0.935447  0.729188  0.634119  1
  O  O35  1  0.891795  0.097002  0.867042  1
  O  O36  1  0.771661  0.561164  0.112915  1
  O  O37  1  0.930662  0.732995  0.954873  1
  O  O38  1  0.784644  0.541950  0.463742  1
  O  O39  1  0.713845  0.948801  0.030567  1
  O  O40  1  0.779409  0.558263  0.795507  1
  O  O41  1  0.714176  0.957689  0.370067  1
  O  O42  1  0.593947  0.397156  0.286689  1
  O  O43  1  0.729417  0.939880  0.718963  1
  O  O44  1  0.609606  0.398764  0.632243  1
  O  O45  1  0.566376  0.771235  0.198737  1
  O  O46  1  0.454065  0.219190  0.136301  1
  O  O47  1  0.597363  0.398559  0.964468  1
  O  O48  1  0.564571  0.770621  0.532977  1
  O  O49  1  0.437979  0.228644  0.447667  1
  O  O50  1  0.394900  0.604582  0.053534  1
  O  O51  1  0.575005  0.775423  0.881516  1
  O  O52  1  0.450756  0.200341  0.796443  1
  O  O53  1  0.386458  0.609034  0.371929  1
  O  O54  1  0.277131  0.070661  0.298962  1
  O  O55  1  0.388592  0.610281  0.712961  1
  O  O56  1  0.236244  0.433700  0.211803  1
  O  O57  1  0.265197  0.069258  0.621754  1
  O  O58  1  0.276679  0.067981  0.966897  1
  O  O59  1  0.220636  0.431349  0.531985  1
  O  O60  1  0.054969  0.283836  0.046323  1
  O  O61  1  0.111720  0.883343  0.120722  1
  O  O62  1  0.228899  0.435472  0.864348  1
  O  O63  1  0.061584  0.269294  0.385966  1
  O  O64  1  0.114162  0.891145  0.462025  1
  O  O65  1  0.046117  0.280537  0.697786  1
  O  O66  1  0.105355  0.897008  0.779444  1
