# generated using pymatgen
data_Li4Mn5O10
_symmetry_space_group_name_H-M   'P 1'
_cell_length_a   7.95256113
_cell_length_b   6.58500230
_cell_length_c   7.97005213
_cell_angle_alpha   114.48649495
_cell_angle_beta   83.46448463
_cell_angle_gamma   91.06664953
_symmetry_Int_Tables_number   1
_chemical_formula_structural   Li4Mn5O10
_chemical_formula_sum   'Li8 Mn10 O20'
_cell_volume   377.17717303
_cell_formula_units_Z   2
loop_
 _symmetry_equiv_pos_site_id
 _symmetry_equiv_pos_as_xyz
  1  'x, y, z'
loop_
 _atom_site_type_symbol
 _atom_site_label
 _atom_site_symmetry_multiplicity
 _atom_site_fract_x
 _atom_site_fract_y
 _atom_site_fract_z
 _atom_site_occupancy
  Li  Li1  1  0.048591  0.332320  0.764545  1
  Li  Li2  1  0.154213  0.054040  0.410414  1
  Li  Li3  1  0.000376  0.496323  0.486744  1
  Li  Li4  1  0.499624  0.003677  0.513256  1
  Li  Li5  1  0.345787  0.445960  0.589586  1
  Li  Li6  1  0.451409  0.167680  0.235455  1
  Li  Li7  1  0.658082  0.572474  0.416303  1
  Li  Li8  1  0.841918  0.927526  0.583697  1
  Mn  Mn9  1  0.097520  0.210886  0.107722  1
  Mn  Mn10  1  0.402480  0.289114  0.892278  1
  Mn  Mn11  1  0.298242  0.604194  0.310801  1
  Mn  Mn12  1  0.201758  0.895806  0.689199  1
  Mn  Mn13  1  0.250000  0.750000  0.000000  1
  Mn  Mn14  1  0.797745  0.098426  0.309029  1
  Mn  Mn15  1  0.702255  0.401574  0.690971  1
  Mn  Mn16  1  0.750000  0.250000  0.000000  1
  Mn  Mn17  1  0.601720  0.714501  0.117501  1
  Mn  Mn18  1  0.898280  0.785499  0.882499  1
  O  O19  1  0.265194  0.157282  0.654279  1
  O  O20  1  0.234806  0.342718  0.345721  1
  O  O21  1  0.143660  0.644019  0.758898  1
  O  O22  1  0.198642  0.464524  0.065059  1
  O  O23  1  0.100949  0.772085  0.465632  1
  O  O24  1  0.624909  0.158886  0.759876  1
  O  O25  1  0.010978  0.941790  0.136022  1
  O  O26  1  0.678067  0.983429  0.086148  1
  O  O27  1  0.597044  0.283886  0.466051  1
  O  O28  1  0.489022  0.558210  0.863978  1
  O  O29  1  0.523194  0.456329  0.167867  1
  O  O30  1  0.399051  0.727915  0.534368  1
  O  O31  1  0.301358  0.035476  0.934941  1
  O  O32  1  0.976806  0.043671  0.832133  1
  O  O33  1  0.356340  0.855981  0.241102  1
  O  O34  1  0.902956  0.216114  0.533949  1
  O  O35  1  0.821933  0.516571  0.913852  1
  O  O36  1  0.875091  0.341114  0.240124  1
  O  O37  1  0.788249  0.656767  0.656459  1
  O  O38  1  0.711751  0.843233  0.343541  1
