# generated using pymatgen
data_K3Nd
_symmetry_space_group_name_H-M   'P 1'
_cell_length_a   8.66188134
_cell_length_b   8.66188115
_cell_length_c   7.17415448
_cell_angle_alpha   90.00000000
_cell_angle_beta   90.00000000
_cell_angle_gamma   120.00000071
_symmetry_Int_Tables_number   1
_chemical_formula_structural   K3Nd
_chemical_formula_sum   'K6 Nd2'
_cell_volume   466.15012312
_cell_formula_units_Z   2
loop_
 _symmetry_equiv_pos_site_id
 _symmetry_equiv_pos_as_xyz
  1  'x, y, z'
loop_
 _atom_site_type_symbol
 _atom_site_label
 _atom_site_symmetry_multiplicity
 _atom_site_fract_x
 _atom_site_fract_y
 _atom_site_fract_z
 _atom_site_occupancy
  K  K1  1  0.828989  0.171012  0.749998  1
  K  K2  1  0.342022  0.171012  0.749998  1
  K  K3  1  0.828989  0.657979  0.749998  1
  K  K4  1  0.171011  0.828988  0.250000  1
  K  K5  1  0.657978  0.828988  0.250000  1
  K  K6  1  0.171011  0.342021  0.250000  1
  Nd  Nd7  1  0.666665  0.333332  0.250000  1
  Nd  Nd8  1  0.333334  0.666668  0.749998  1
