# generated using pymatgen
data_Li13Mn8O24
_symmetry_space_group_name_H-M   'P 1'
_cell_length_a   4.99490928
_cell_length_b   8.60629848
_cell_length_c   9.72288549
_cell_angle_alpha   90.00000000
_cell_angle_beta   99.41482000
_cell_angle_gamma   90.00000000
_symmetry_Int_Tables_number   1
_chemical_formula_structural   Li13Mn8O24
_chemical_formula_sum   'Li13 Mn8 O24'
_cell_volume   412.33426377
_cell_formula_units_Z   1
loop_
 _symmetry_equiv_pos_site_id
 _symmetry_equiv_pos_as_xyz
  1  'x, y, z'
loop_
 _atom_site_type_symbol
 _atom_site_label
 _atom_site_symmetry_multiplicity
 _atom_site_fract_x
 _atom_site_fract_y
 _atom_site_fract_z
 _atom_site_occupancy
  Li  Li1  1  0.000000  0.747816  0.250000  1
  Li  Li2  1  0.246720  0.405392  0.999389  1
  Li  Li3  1  0.254169  0.905320  0.504021  1
  Li  Li4  1  0.250608  0.250020  0.500089  1
  Li  Li5  1  0.252219  0.594362  0.501265  1
  Li  Li6  1  0.249904  0.094522  0.002803  1
  Li  Li7  1  0.257796  0.750004  0.998568  1
  Li  Li8  1  0.745831  0.905320  0.995979  1
  Li  Li9  1  0.753280  0.405392  0.500611  1
  Li  Li10  1  0.742204  0.750004  0.501432  1
  Li  Li11  1  0.750096  0.094522  0.497197  1
  Li  Li12  1  0.747781  0.594362  0.998735  1
  Li  Li13  1  0.749392  0.250020  0.999911  1
  Mn  Mn14  1  0.000000  0.585176  0.750000  1
  Mn  Mn15  1  0.000000  0.919799  0.750000  1
  Mn  Mn16  1  0.000000  0.083051  0.250000  1
  Mn  Mn17  1  0.000000  0.412112  0.250000  1
  Mn  Mn18  1  0.500000  0.085449  0.750000  1
  Mn  Mn19  1  0.500000  0.419553  0.750000  1
  Mn  Mn20  1  0.500000  0.577229  0.250000  1
  Mn  Mn21  1  0.500000  0.918122  0.250000  1
  O  O22  1  0.089556  0.752277  0.633531  1
  O  O23  1  0.148715  0.437765  0.636072  1
  O  O24  1  0.149022  0.066671  0.635892  1
  O  O25  1  0.091968  0.247811  0.133009  1
  O  O26  1  0.351300  0.566482  0.864514  1
  O  O27  1  0.351451  0.938091  0.864385  1
  O  O28  1  0.143648  0.567792  0.137910  1
  O  O29  1  0.143830  0.927689  0.137792  1
  O  O30  1  0.409964  0.252319  0.866259  1
  O  O31  1  0.351743  0.431841  0.364145  1
  O  O32  1  0.352059  0.063665  0.364076  1
  O  O33  1  0.394362  0.747756  0.363560  1
  O  O34  1  0.590036  0.252319  0.633741  1
  O  O35  1  0.648549  0.938091  0.635615  1
  O  O36  1  0.648700  0.566482  0.635486  1
  O  O37  1  0.605638  0.747756  0.136440  1
  O  O38  1  0.850978  0.066671  0.864108  1
  O  O39  1  0.851285  0.437765  0.863928  1
  O  O40  1  0.647941  0.063665  0.135924  1
  O  O41  1  0.648257  0.431841  0.135855  1
  O  O42  1  0.910444  0.752277  0.866469  1
  O  O43  1  0.856170  0.927689  0.362208  1
  O  O44  1  0.856352  0.567792  0.362090  1
  O  O45  1  0.908032  0.247811  0.366991  1
