# generated using pymatgen
data_LiMn7O12
_symmetry_space_group_name_H-M   'P 1'
_cell_length_a   9.58815423
_cell_length_b   11.50268083
_cell_length_c   9.58687178
_cell_angle_alpha   65.37086852
_cell_angle_beta   89.99917620
_cell_angle_gamma   114.63183172
_symmetry_Int_Tables_number   1
_chemical_formula_structural   LiMn7O12
_chemical_formula_sum   'Li4 Mn28 O48'
_cell_volume   854.15717176
_cell_formula_units_Z   4
loop_
 _symmetry_equiv_pos_site_id
 _symmetry_equiv_pos_as_xyz
  1  'x, y, z'
loop_
 _atom_site_type_symbol
 _atom_site_label
 _atom_site_symmetry_multiplicity
 _atom_site_fract_x
 _atom_site_fract_y
 _atom_site_fract_z
 _atom_site_occupancy
  Li  Li1  1  0.125005  0.749996  0.125011  1
  Li  Li2  1  0.374992  0.250004  0.375004  1
  Li  Li3  1  0.624997  0.749997  0.625009  1
  Li  Li4  1  0.875005  0.250003  0.875002  1
  Mn  Mn5  1  0.999991  0.999985  0.000031  1
  Mn  Mn6  1  0.500001  0.000009  0.999998  1
  Mn  Mn7  1  0.600757  0.250011  0.100713  1
  Mn  Mn8  1  0.196642  0.999997  0.250021  1
  Mn  Mn9  1  0.999999  0.500003  0.000003  1
  Mn  Mn10  1  0.499998  0.499998  0.000014  1
  Mn  Mn11  1  0.696547  0.000007  0.250001  1
  Mn  Mn12  1  0.100750  0.249997  0.149289  1
  Mn  Mn13  1  0.749995  0.499993  0.196504  1
  Mn  Mn14  1  0.999996  0.999992  0.500014  1
  Mn  Mn15  1  0.624974  0.749933  0.125041  1
  Mn  Mn16  1  0.875034  0.250067  0.374966  1
  Mn  Mn17  1  0.500012  0.000014  0.500016  1
  Mn  Mn18  1  0.250003  0.500005  0.303515  1
  Mn  Mn19  1  0.850759  0.750001  0.350723  1
  Mn  Mn20  1  0.649238  0.249997  0.600715  1
  Mn  Mn21  1  0.000001  0.499995  0.500008  1
  Mn  Mn22  1  0.500000  0.500001  0.500007  1
  Mn  Mn23  1  0.303383  0.999993  0.750010  1
  Mn  Mn24  1  0.803439  0.999994  0.750025  1
  Mn  Mn25  1  0.350759  0.750003  0.399306  1
  Mn  Mn26  1  0.149246  0.249998  0.649297  1
  Mn  Mn27  1  0.750007  0.499999  0.696472  1
  Mn  Mn28  1  0.124963  0.749935  0.625049  1
  Mn  Mn29  1  0.375029  0.250069  0.874975  1
  Mn  Mn30  1  0.250003  0.500009  0.803532  1
  Mn  Mn31  1  0.899245  0.749991  0.850732  1
  Mn  Mn32  1  0.399245  0.750002  0.899299  1
  O  O33  1  0.682028  0.149299  0.024575  1
  O  O34  1  0.123636  0.121929  0.081371  1
  O  O35  1  0.394251  0.111008  0.087280  1
  O  O36  1  0.796756  0.377949  0.123724  1
  O  O37  1  0.703241  0.622043  0.001685  1
  O  O38  1  0.894226  0.111012  0.301727  1
  O  O39  1  0.623645  0.121956  0.296711  1
  O  O40  1  0.524798  0.350893  0.182088  1
  O  O41  1  0.975206  0.649096  0.033004  1
  O  O42  1  0.087330  0.389154  0.216649  1
  O  O43  1  0.412703  0.610850  0.105806  1
  O  O44  1  0.182015  0.149287  0.326149  1
  O  O45  1  0.032751  0.850708  0.173881  1
  O  O46  1  0.467248  0.149288  0.524574  1
  O  O47  1  0.801825  0.389146  0.394209  1
  O  O48  1  0.698160  0.610851  0.283361  1
  O  O49  1  0.173911  0.649102  0.317930  1
  O  O50  1  0.326096  0.350915  0.467005  1
  O  O51  1  0.501706  0.878068  0.203305  1
  O  O52  1  0.998292  0.121931  0.581371  1
  O  O53  1  0.716758  0.111006  0.587284  1
  O  O54  1  0.783232  0.888992  0.198274  1
  O  O55  1  0.081181  0.377943  0.498343  1
  O  O56  1  0.418817  0.622061  0.376294  1
  O  O57  1  0.918816  0.622051  0.501673  1
  O  O58  1  0.581188  0.377948  0.623712  1
  O  O59  1  0.283235  0.888986  0.412769  1
  O  O60  1  0.216764  0.111003  0.801729  1
  O  O61  1  0.001705  0.878051  0.418667  1
  O  O62  1  0.498292  0.121946  0.796710  1
  O  O63  1  0.826084  0.350894  0.682091  1
  O  O64  1  0.673908  0.649093  0.533007  1
  O  O65  1  0.198153  0.610861  0.605810  1
  O  O66  1  0.301823  0.389157  0.716648  1
  O  O67  1  0.967251  0.149277  0.826155  1
  O  O68  1  0.532747  0.850723  0.475449  1
  O  O69  1  0.817965  0.850696  0.673887  1
  O  O70  1  0.912696  0.610852  0.783361  1
  O  O71  1  0.587328  0.389157  0.894207  1
  O  O72  1  0.024798  0.350914  0.967006  1
  O  O73  1  0.475201  0.649102  0.817932  1
  O  O74  1  0.376358  0.878062  0.703306  1
  O  O75  1  0.105762  0.888980  0.698273  1
  O  O76  1  0.296756  0.377948  0.998336  1
  O  O77  1  0.203246  0.622062  0.876286  1
  O  O78  1  0.605756  0.888989  0.912768  1
  O  O79  1  0.876356  0.878048  0.918671  1
  O  O80  1  0.317985  0.850712  0.975445  1
