# generated using pymatgen
data_Na3Hg2
_symmetry_space_group_name_H-M   'P 1'
_cell_length_a   7.06980682
_cell_length_b   9.06773389
_cell_length_c   9.06773389
_cell_angle_alpha   90.00000000
_cell_angle_beta   90.00000000
_cell_angle_gamma   90.00000000
_symmetry_Int_Tables_number   1
_chemical_formula_structural   Na3Hg2
_chemical_formula_sum   'Na12 Hg8'
_cell_volume   581.30636716
_cell_formula_units_Z   4
loop_
 _symmetry_equiv_pos_site_id
 _symmetry_equiv_pos_as_xyz
  1  'x, y, z'
loop_
 _atom_site_type_symbol
 _atom_site_label
 _atom_site_symmetry_multiplicity
 _atom_site_fract_x
 _atom_site_fract_y
 _atom_site_fract_z
 _atom_site_occupancy
  Na  Na1  1  0.000000  0.642334  0.642334  1
  Na  Na2  1  0.000000  0.817233  0.182767  1
  Na  Na3  1  0.000000  0.357666  0.357666  1
  Na  Na4  1  0.500000  0.142334  0.857666  1
  Na  Na5  1  0.000000  0.500000  0.000000  1
  Na  Na6  1  0.500000  0.500000  0.000000  1
  Na  Na7  1  0.500000  0.682767  0.682767  1
  Na  Na8  1  0.000000  0.000000  0.500000  1
  Na  Na9  1  0.500000  0.857666  0.142334  1
  Na  Na10  1  0.500000  0.317233  0.317233  1
  Na  Na11  1  0.000000  0.182767  0.817233  1
  Na  Na12  1  0.500000  0.000000  0.500000  1
  Hg  Hg13  1  0.788400  0.130351  0.130351  1
  Hg  Hg14  1  0.711600  0.369649  0.630351  1
  Hg  Hg15  1  0.211600  0.130351  0.130351  1
  Hg  Hg16  1  0.288400  0.369649  0.630351  1
  Hg  Hg17  1  0.211600  0.869649  0.869649  1
  Hg  Hg18  1  0.288400  0.630351  0.369649  1
  Hg  Hg19  1  0.711600  0.630351  0.369649  1
  Hg  Hg20  1  0.788400  0.869649  0.869649  1
