# generated using pymatgen
data_NaC64
_symmetry_space_group_name_H-M   'P 1'
_cell_length_a   4.93741614
_cell_length_b   4.93741638
_cell_length_c   67.30314177
_cell_angle_alpha   90.00000000
_cell_angle_beta   90.00000000
_cell_angle_gamma   119.99976605
_symmetry_Int_Tables_number   1
_chemical_formula_structural   NaC64
_chemical_formula_sum   'Na2 C128'
_cell_volume   1420.90970122
_cell_formula_units_Z   2
loop_
 _symmetry_equiv_pos_site_id
 _symmetry_equiv_pos_as_xyz
  1  'x, y, z'
loop_
 _atom_site_type_symbol
 _atom_site_label
 _atom_site_symmetry_multiplicity
 _atom_site_fract_x
 _atom_site_fract_y
 _atom_site_fract_z
 _atom_site_occupancy
  Na  Na1  1  0.333327  0.666673  0.250000  1
  Na  Na2  1  0.666673  0.333327  0.750000  1
  C  C3  1  0.833371  0.166629  0.471350  1
  C  C4  1  0.333351  0.166651  0.585757  1
  C  C5  1  0.333392  0.166627  0.471350  1
  C  C6  1  0.166629  0.833371  0.971350  1
  C  C7  1  0.166552  0.833448  0.298192  1
  C  C8  1  0.500128  0.000173  0.298194  1
  C  C9  1  0.500022  0.999981  0.914243  1
  C  C10  1  -0.000031  0.000031  0.701760  1
  C  C11  1  0.166694  0.333283  0.856926  1
  C  C12  1  0.666623  0.333377  0.528650  1
  C  C13  1  0.166693  0.833307  0.643074  1
  C  C14  1  0.833349  0.666649  0.914243  1
  C  C15  1  0.833451  0.666778  0.798191  1
  C  C16  1  0.333222  0.166549  0.701809  1
  C  C17  1  0.666608  0.833373  0.528650  1
  C  C18  1  0.000173  0.500128  0.798194  1
  C  C19  1  0.333392  0.166627  0.028650  1
  C  C20  1  0.999966  0.500023  0.528653  1
  C  C21  1  0.833349  0.166651  0.585757  1
  C  C22  1  0.666638  0.333362  0.201766  1
  C  C23  1  0.833349  0.166651  0.914243  1
  C  C24  1  0.500036  0.499964  0.856927  1
  C  C25  1  -0.000016  0.000016  0.085757  1
  C  C26  1  0.499977  0.000034  0.528653  1
  C  C27  1  0.000031  -0.000031  0.201760  1
  C  C28  1  0.499985  0.500015  0.085757  1
  C  C29  1  0.499964  1.000040  0.356927  1
  C  C30  1  1.000040  0.499964  0.856927  1
  C  C31  1  1.000040  0.499964  0.643073  1
  C  C32  1  0.500131  0.499869  0.298194  1
  C  C33  1  0.666648  0.333352  0.414243  1
  C  C34  1  0.999827  0.499872  0.201806  1
  C  C35  1  0.499977  0.000034  0.971347  1
  C  C36  1  0.499977  0.500023  0.528653  1
  C  C37  1  0.833307  0.166693  0.356926  1
  C  C38  1  0.499872  0.999827  0.701806  1
  C  C39  1  0.166651  0.333351  0.085757  1
  C  C40  1  0.499872  0.999827  0.798194  1
  C  C41  1  0.500036  0.499964  0.643073  1
  C  C42  1  0.333283  0.166694  0.356926  1
  C  C43  1  0.500022  0.999981  0.585757  1
  C  C44  1  0.666608  0.833373  0.971350  1
  C  C45  1  0.166549  0.333222  0.201809  1
  C  C46  1  0.499869  0.500131  0.798194  1
  C  C47  1  0.500023  0.999966  0.471347  1
  C  C48  1  0.999966  0.500023  0.971347  1
  C  C49  1  0.833373  0.666608  0.471350  1
  C  C50  1  0.666778  0.833451  0.298191  1
  C  C51  1  0.833306  0.666717  0.143074  1
  C  C52  1  0.666649  0.833349  0.414243  1
  C  C53  1  0.000031  -0.000031  0.298240  1
  C  C54  1  0.333222  0.166549  0.798191  1
  C  C55  1  0.833451  0.666778  0.701809  1
  C  C56  1  0.000034  0.499977  0.471347  1
  C  C57  1  0.666638  0.333362  0.298234  1
  C  C58  1  0.166693  0.833307  0.856926  1
  C  C59  1  0.666623  0.333377  0.971350  1
  C  C60  1  0.166694  0.333283  0.643074  1
  C  C61  1  0.500023  0.499977  0.028653  1
  C  C62  1  0.500036  -0.000040  0.856927  1
  C  C63  1  0.000037  -0.000037  0.856927  1
  C  C64  1  0.833349  0.666649  0.585757  1
  C  C65  1  0.166629  0.833371  0.528650  1
  C  C66  1  0.833373  0.666608  0.028650  1
  C  C67  1  -0.000037  0.000037  0.356927  1
  C  C68  1  0.333351  0.166651  0.914243  1
  C  C69  1  0.999981  0.500022  0.414243  1
  C  C70  1  0.166651  0.833349  0.085757  1
  C  C71  1  0.500036  -0.000040  0.643073  1
  C  C72  1  0.499985  0.500015  0.414243  1
  C  C73  1  -0.000031  0.000031  0.798240  1
  C  C74  1  0.000019  0.499978  0.585757  1
  C  C75  1  0.166552  0.833448  0.201808  1
  C  C76  1  0.833448  0.166552  0.701808  1
  C  C77  1  0.333377  0.666623  0.471350  1
  C  C78  1  0.666649  0.833349  0.085757  1
  C  C79  1  0.833448  0.166552  0.798192  1
  C  C80  1  0.166651  0.833349  0.414243  1
  C  C81  1  0.333362  0.666638  0.701766  1
  C  C82  1  -0.000040  0.500036  0.143073  1
  C  C83  1  0.000019  0.499978  0.914243  1
  C  C84  1  0.000016  -0.000016  0.914243  1
  C  C85  1  0.499978  0.000019  0.085757  1
  C  C86  1  0.833306  0.666717  0.356926  1
  C  C87  1  0.166627  0.333392  0.971350  1
  C  C88  1  0.666700  0.333300  0.643075  1
  C  C89  1  0.333283  0.166694  0.143074  1
  C  C90  1  -0.000025  0.000025  0.528653  1
  C  C91  1  0.333300  0.666700  0.143075  1
  C  C92  1  0.499964  1.000040  0.143073  1
  C  C93  1  0.666717  0.833306  0.643074  1
  C  C94  1  0.166549  0.333222  0.298191  1
  C  C95  1  -0.000040  0.500036  0.356927  1
  C  C96  1  0.333352  0.666648  0.585757  1
  C  C97  1  0.499964  0.500036  0.356927  1
  C  C98  1  0.500023  0.999966  0.028653  1
  C  C99  1  0.333352  0.666648  0.914243  1
  C  C100  1  0.833307  0.166693  0.143074  1
  C  C101  1  0.666717  0.833306  0.856926  1
  C  C102  1  0.500131  0.499869  0.201806  1
  C  C103  1  -0.000016  0.000016  0.414243  1
  C  C104  1  0.499978  0.000019  0.414243  1
  C  C105  1  -0.000025  0.000025  0.971347  1
  C  C106  1  0.499977  0.500023  0.971347  1
  C  C107  1  0.499964  0.500036  0.143073  1
  C  C108  1  0.666700  0.333300  0.856925  1
  C  C109  1  0.000037  -0.000037  0.643073  1
  C  C110  1  0.500015  0.499985  0.585757  1
  C  C111  1  0.500015  0.499985  0.914243  1
  C  C112  1  0.999827  0.499872  0.298194  1
  C  C113  1  -0.000037  0.000037  0.143073  1
  C  C114  1  0.333300  0.666700  0.356925  1
  C  C115  1  0.000173  0.500128  0.701806  1
  C  C116  1  0.000016  -0.000016  0.585757  1
  C  C117  1  0.000025  -0.000025  0.471347  1
  C  C118  1  0.333362  0.666638  0.798234  1
  C  C119  1  0.166627  0.333392  0.528650  1
  C  C120  1  0.166651  0.333351  0.414243  1
  C  C121  1  0.999981  0.500022  0.085757  1
  C  C122  1  0.500023  0.499977  0.471347  1
  C  C123  1  0.000034  0.499977  0.028653  1
  C  C124  1  0.833371  0.166629  0.028650  1
  C  C125  1  0.666648  0.333352  0.085757  1
  C  C126  1  0.333377  0.666623  0.028650  1
  C  C127  1  0.499869  0.500131  0.701806  1
  C  C128  1  0.666778  0.833451  0.201809  1
  C  C129  1  0.000025  -0.000025  0.028653  1
  C  C130  1  0.500128  0.000173  0.201806  1
