# generated using pymatgen
data_Li3MnO3
_symmetry_space_group_name_H-M   'P 1'
_cell_length_a   9.62515747
_cell_length_b   9.62627042
_cell_length_c   9.79392361
_cell_angle_alpha   89.97825504
_cell_angle_beta   90.02279805
_cell_angle_gamma   120.02270239
_symmetry_Int_Tables_number   1
_chemical_formula_structural   Li3MnO3
_chemical_formula_sum   'Li36 Mn12 O36'
_cell_volume   785.69466600
_cell_formula_units_Z   12
loop_
 _symmetry_equiv_pos_site_id
 _symmetry_equiv_pos_as_xyz
  1  'x, y, z'
loop_
 _atom_site_type_symbol
 _atom_site_label
 _atom_site_symmetry_multiplicity
 _atom_site_fract_x
 _atom_site_fract_y
 _atom_site_fract_z
 _atom_site_occupancy
  Li  Li1  1  0.083948  0.861819  0.422989  1
  Li  Li2  1  0.146504  0.916607  0.922872  1
  Li  Li3  1  0.093324  0.522087  0.922848  1
  Li  Li4  1  0.185607  0.752058  0.080057  1
  Li  Li5  1  0.100785  0.582496  0.420148  1
  Li  Li6  1  0.238579  0.813167  0.578258  1
  Li  Li7  1  0.186241  0.437031  0.577733  1
  Li  Li8  1  0.471015  0.889597  0.422973  1
  Li  Li9  1  0.094558  0.241413  0.921724  1
  Li  Li10  1  0.149368  0.233117  0.419849  1
  Li  Li11  1  0.249210  0.444847  0.077398  1
  Li  Li12  1  0.417322  0.897369  0.922459  1
  Li  Li13  1  0.563975  0.812930  0.079458  1
  Li  Li14  1  0.232170  0.148489  0.079857  1
  Li  Li15  1  0.481511  0.583574  0.922776  1
  Li  Li16  1  0.564338  0.750251  0.577131  1
  Li  Li17  1  0.241043  0.094693  0.578263  1
  Li  Li18  1  0.417191  0.520824  0.420643  1
  Li  Li19  1  0.582377  0.481210  0.577388  1
  Li  Li20  1  0.769259  0.915560  0.420424  1
  Li  Li21  1  0.444507  0.249008  0.422653  1
  Li  Li22  1  0.519942  0.417111  0.079566  1
  Li  Li23  1  0.768862  0.850764  0.922730  1
  Li  Li24  1  0.435840  0.186362  0.921880  1
  Li  Li25  1  0.582190  0.101252  0.079574  1
  Li  Li26  1  0.749256  0.563295  0.923116  1
  Li  Li27  1  0.850718  0.767473  0.577542  1
  Li  Li28  1  0.915672  0.768332  0.079905  1
  Li  Li29  1  0.522015  0.093536  0.577150  1
  Li  Li30  1  0.812099  0.562952  0.420733  1
  Li  Li31  1  0.752019  0.184882  0.419681  1
  Li  Li32  1  0.896571  0.416126  0.577415  1
  Li  Li33  1  0.813113  0.238548  0.922057  1
  Li  Li34  1  0.889475  0.470987  0.077298  1
  Li  Li35  1  0.861891  0.083961  0.077133  1
  Li  Li36  1  0.917899  0.146790  0.576813  1
  Mn  Mn37  1  0.000820  0.667008  0.749730  1
  Mn  Mn38  1  0.000515  0.333509  0.249760  1
  Mn  Mn39  1  0.332560  0.667462  0.250093  1
  Mn  Mn40  1  0.000249  0.000285  0.249956  1
  Mn  Mn41  1  0.997147  0.997562  0.749899  1
  Mn  Mn42  1  0.335318  0.666700  0.750332  1
  Mn  Mn43  1  0.332122  0.332617  0.749875  1
  Mn  Mn44  1  0.333410  0.000420  0.250176  1
  Mn  Mn45  1  0.666238  0.666165  0.250092  1
  Mn  Mn46  1  0.667454  0.332373  0.249811  1
  Mn  Mn47  1  0.667304  0.335509  0.749716  1
  Mn  Mn48  1  0.666941  0.000637  0.749959  1
  O  O49  1  0.078237  0.888562  0.629002  1
  O  O50  1  0.140346  0.920544  0.130044  1
  O  O51  1  0.195137  0.748002  0.870225  1
  O  O52  1  0.246091  0.807517  0.369990  1
  O  O53  1  0.112177  0.586525  0.629237  1
  O  O54  1  0.106048  0.527006  0.130463  1
  O  O55  1  0.087486  0.228231  0.129850  1
  O  O56  1  0.192857  0.446759  0.370231  1
  O  O57  1  0.413212  0.887413  0.129697  1
  O  O58  1  0.444503  0.857026  0.629259  1
  O  O59  1  0.253956  0.477013  0.870971  1
  O  O60  1  0.140973  0.221588  0.628753  1
  O  O61  1  0.218171  0.138229  0.869694  1
  O  O62  1  0.414515  0.532273  0.629649  1
  O  O63  1  0.473763  0.585030  0.130026  1
  O  O64  1  0.551458  0.803656  0.871323  1
  O  O65  1  0.227848  0.087213  0.369977  1
  O  O66  1  0.555184  0.748649  0.369957  1
  O  O67  1  0.476766  0.254323  0.629018  1
  O  O68  1  0.784231  0.918496  0.629673  1
  O  O69  1  0.446092  0.192603  0.129596  1
  O  O70  1  0.528937  0.414186  0.871512  1
  O  O71  1  0.584265  0.473599  0.370164  1
  O  O72  1  0.778025  0.858939  0.129946  1
  O  O73  1  0.858927  0.777239  0.370482  1
  O  O74  1  0.748083  0.554528  0.130511  1
  O  O75  1  0.526868  0.106138  0.369510  1
  O  O76  1  0.586576  0.114883  0.869538  1
  O  O77  1  0.800463  0.548284  0.629799  1
  O  O78  1  0.918662  0.780858  0.871548  1
  O  O79  1  0.857069  0.444059  0.870803  1
  O  O80  1  0.887047  0.412740  0.370268  1
  O  O81  1  0.748116  0.192276  0.628624  1
  O  O82  1  0.807350  0.245923  0.130001  1
  O  O83  1  0.888958  0.078599  0.870986  1
  O  O84  1  0.921025  0.140323  0.369772  1
