# generated using pymatgen
data_Na7Ga13
_symmetry_space_group_name_H-M   'P 1'
_cell_length_a   15.70880986
_cell_length_b   15.70880981
_cell_length_c   15.70881010
_cell_angle_alpha   57.43030521
_cell_angle_beta   57.43030532
_cell_angle_gamma   57.43030401
_symmetry_Int_Tables_number   1
_chemical_formula_structural   Na7Ga13
_chemical_formula_sum   'Na42 Ga78'
_cell_volume   2578.97883221
_cell_formula_units_Z   6
loop_
 _symmetry_equiv_pos_site_id
 _symmetry_equiv_pos_as_xyz
  1  'x, y, z'
loop_
 _atom_site_type_symbol
 _atom_site_label
 _atom_site_symmetry_multiplicity
 _atom_site_fract_x
 _atom_site_fract_y
 _atom_site_fract_z
 _atom_site_occupancy
  Na  Na1  1  0.251351  0.500801  0.878578  1
  Na  Na2  1  0.872800  0.252981  0.872800  1
  Na  Na3  1  0.499199  0.121422  0.748649  1
  Na  Na4  1  0.878578  0.500801  0.251351  1
  Na  Na5  1  0.509949  0.139685  0.139685  1
  Na  Na6  1  0.748649  0.121422  0.499199  1
  Na  Na7  1  0.860315  0.490051  0.860315  1
  Na  Na8  1  0.619983  0.619983  0.619983  1
  Na  Na9  1  0.060032  0.755413  0.755413  1
  Na  Na10  1  0.127200  0.127200  0.747019  1
  Na  Na11  1  0.127200  0.747019  0.127200  1
  Na  Na12  1  0.755413  0.755413  0.060032  1
  Na  Na13  1  0.251351  0.878578  0.500801  1
  Na  Na14  1  0.244587  0.939968  0.244587  1
  Na  Na15  1  0.044089  0.044089  0.044089  1
  Na  Na16  1  0.939968  0.244587  0.244587  1
  Na  Na17  1  0.139685  0.139685  0.509949  1
  Na  Na18  1  0.280736  0.280736  0.666506  1
  Na  Na19  1  0.252981  0.872800  0.872800  1
  Na  Na20  1  0.719264  0.719264  0.333494  1
  Na  Na21  1  0.860315  0.860315  0.490051  1
  Na  Na22  1  0.872800  0.872800  0.252981  1
  Na  Na23  1  0.121422  0.748649  0.499199  1
  Na  Na24  1  0.747019  0.127200  0.127200  1
  Na  Na25  1  0.333494  0.719264  0.719264  1
  Na  Na26  1  0.499199  0.748649  0.121422  1
  Na  Na27  1  0.666506  0.280736  0.280736  1
  Na  Na28  1  0.280736  0.666506  0.280736  1
  Na  Na29  1  0.244587  0.244587  0.939968  1
  Na  Na30  1  0.755413  0.060032  0.755413  1
  Na  Na31  1  0.955911  0.955911  0.955911  1
  Na  Na32  1  0.500801  0.251351  0.878578  1
  Na  Na33  1  0.500801  0.878578  0.251351  1
  Na  Na34  1  0.711277  0.711277  0.711277  1
  Na  Na35  1  0.288723  0.288723  0.288723  1
  Na  Na36  1  0.490051  0.860315  0.860315  1
  Na  Na37  1  0.748649  0.499199  0.121422  1
  Na  Na38  1  0.719264  0.333494  0.719264  1
  Na  Na39  1  0.380017  0.380017  0.380017  1
  Na  Na40  1  0.878578  0.251351  0.500801  1
  Na  Na41  1  0.139685  0.509949  0.139685  1
  Na  Na42  1  0.121422  0.499199  0.748649  1
  Ga  Ga43  1  0.159364  0.509421  0.509421  1
  Ga  Ga44  1  0.396015  0.083638  0.083638  1
  Ga  Ga45  1  0.916362  0.603985  0.916362  1
  Ga  Ga46  1  0.083638  0.083638  0.396015  1
  Ga  Ga47  1  0.386721  0.994479  0.994479  1
  Ga  Ga48  1  0.300104  0.618770  0.618770  1
  Ga  Ga49  1  0.488568  0.670661  0.488568  1
  Ga  Ga50  1  0.119638  0.927935  0.736966  1
  Ga  Ga51  1  0.072065  0.263034  0.880362  1
  Ga  Ga52  1  0.962895  0.617027  0.310330  1
  Ga  Ga53  1  0.617027  0.962895  0.310330  1
  Ga  Ga54  1  0.509421  0.509421  0.159364  1
  Ga  Ga55  1  0.736966  0.119638  0.927935  1
  Ga  Ga56  1  0.718577  0.718577  0.908112  1
  Ga  Ga57  1  0.618770  0.300104  0.618770  1
  Ga  Ga58  1  0.916362  0.916362  0.603985  1
  Ga  Ga59  1  0.608630  0.608630  0.956711  1
  Ga  Ga60  1  0.391370  0.043289  0.391370  1
  Ga  Ga61  1  0.382973  0.037105  0.689670  1
  Ga  Ga62  1  0.083638  0.396015  0.083638  1
  Ga  Ga63  1  0.263034  0.880362  0.072065  1
  Ga  Ga64  1  0.037105  0.689670  0.382973  1
  Ga  Ga65  1  0.310330  0.962895  0.617027  1
  Ga  Ga66  1  0.310330  0.617027  0.962895  1
  Ga  Ga67  1  0.005521  0.005521  0.613279  1
  Ga  Ga68  1  0.332472  0.159158  0.511247  1
  Ga  Ga69  1  0.281423  0.091888  0.281423  1
  Ga  Ga70  1  0.608630  0.956711  0.608630  1
  Ga  Ga71  1  0.880362  0.072065  0.263034  1
  Ga  Ga72  1  0.490579  0.490579  0.840636  1
  Ga  Ga73  1  0.281423  0.281423  0.091888  1
  Ga  Ga74  1  0.005521  0.613279  0.005521  1
  Ga  Ga75  1  0.699896  0.381230  0.381230  1
  Ga  Ga76  1  0.840842  0.488753  0.667528  1
  Ga  Ga77  1  0.962895  0.310330  0.617027  1
  Ga  Ga78  1  0.603985  0.916362  0.916362  1
  Ga  Ga79  1  0.927935  0.119638  0.736966  1
  Ga  Ga80  1  0.689670  0.037105  0.382973  1
  Ga  Ga81  1  0.488568  0.488568  0.670661  1
  Ga  Ga82  1  0.511432  0.329339  0.511432  1
  Ga  Ga83  1  0.718577  0.908112  0.718577  1
  Ga  Ga84  1  0.511432  0.511432  0.329339  1
  Ga  Ga85  1  0.381230  0.381230  0.699896  1
  Ga  Ga86  1  0.381230  0.699896  0.381230  1
  Ga  Ga87  1  0.670661  0.488568  0.488568  1
  Ga  Ga88  1  0.037105  0.382973  0.689670  1
  Ga  Ga89  1  0.159158  0.511247  0.332472  1
  Ga  Ga90  1  0.511247  0.332472  0.159158  1
  Ga  Ga91  1  0.490579  0.840636  0.490579  1
  Ga  Ga92  1  0.329339  0.511432  0.511432  1
  Ga  Ga93  1  0.994479  0.994479  0.386721  1
  Ga  Ga94  1  0.840842  0.667528  0.488753  1
  Ga  Ga95  1  0.667528  0.840842  0.488753  1
  Ga  Ga96  1  0.043289  0.391370  0.391370  1
  Ga  Ga97  1  0.119638  0.736966  0.927935  1
  Ga  Ga98  1  0.840636  0.490579  0.490579  1
  Ga  Ga99  1  0.159158  0.332472  0.511247  1
  Ga  Ga100  1  0.689670  0.382973  0.037105  1
  Ga  Ga101  1  0.617027  0.310330  0.962895  1
  Ga  Ga102  1  0.091888  0.281423  0.281423  1
  Ga  Ga103  1  0.667528  0.488753  0.840842  1
  Ga  Ga104  1  0.994479  0.386721  0.994479  1
  Ga  Ga105  1  0.618770  0.618770  0.300104  1
  Ga  Ga106  1  0.382973  0.689670  0.037105  1
  Ga  Ga107  1  0.880362  0.263034  0.072065  1
  Ga  Ga108  1  0.263034  0.072065  0.880362  1
  Ga  Ga109  1  0.488753  0.667528  0.840842  1
  Ga  Ga110  1  0.509421  0.159364  0.509421  1
  Ga  Ga111  1  0.391370  0.391370  0.043289  1
  Ga  Ga112  1  0.072065  0.880362  0.263034  1
  Ga  Ga113  1  0.908112  0.718577  0.718577  1
  Ga  Ga114  1  0.956711  0.608630  0.608630  1
  Ga  Ga115  1  0.488753  0.840842  0.667528  1
  Ga  Ga116  1  0.511247  0.159158  0.332472  1
  Ga  Ga117  1  0.332472  0.511247  0.159158  1
  Ga  Ga118  1  0.927935  0.736966  0.119638  1
  Ga  Ga119  1  0.736966  0.927935  0.119638  1
  Ga  Ga120  1  0.613279  0.005521  0.005521  1
