# generated using pymatgen
data_LiMn6O12
_symmetry_space_group_name_H-M   'P 1'
_cell_length_a   6.69534172
_cell_length_b   6.68946128
_cell_length_c   15.37706454
_cell_angle_alpha   82.68686172
_cell_angle_beta   97.33748210
_cell_angle_gamma   97.92265814
_symmetry_Int_Tables_number   1
_chemical_formula_structural   LiMn6O12
_chemical_formula_sum   'Li3 Mn18 O36'
_cell_volume   672.32097460
_cell_formula_units_Z   3
loop_
 _symmetry_equiv_pos_site_id
 _symmetry_equiv_pos_as_xyz
  1  'x, y, z'
loop_
 _atom_site_type_symbol
 _atom_site_label
 _atom_site_symmetry_multiplicity
 _atom_site_fract_x
 _atom_site_fract_y
 _atom_site_fract_z
 _atom_site_occupancy
  Li  Li1  1  0.747178  0.248811  0.084926  1
  Li  Li2  1  0.749077  0.248244  0.749021  1
  Li  Li3  1  0.088339  0.588457  0.414588  1
  Mn  Mn4  1  0.989925  0.012832  0.332654  1
  Mn  Mn5  1  0.006536  0.992630  0.667426  1
  Mn  Mn6  1  0.839682  0.826184  0.167252  1
  Mn  Mn7  1  0.833863  0.835474  0.500116  1
  Mn  Mn8  1  0.839404  0.825388  0.834139  1
  Mn  Mn9  1  0.659975  0.673803  0.332036  1
  Mn  Mn10  1  0.661948  0.669756  0.666417  1
  Mn  Mn11  1  0.493382  0.506736  0.165997  1
  Mn  Mn12  1  0.657661  0.676213  0.998071  1
  Mn  Mn13  1  0.513707  0.489278  0.500769  1
  Mn  Mn14  1  0.495777  0.503902  0.832746  1
  Mn  Mn15  1  0.337029  0.332350  0.333397  1
  Mn  Mn16  1  0.327150  0.338092  0.666491  1
  Mn  Mn17  1  0.169435  0.162538  0.166849  1
  Mn  Mn18  1  0.324591  0.340612  0.999030  1
  Mn  Mn19  1  0.174906  0.158038  0.501945  1
  Mn  Mn20  1  0.174376  0.159329  0.834684  1
  Mn  Mn21  1  0.002162  0.997512  0.000244  1
  O  O22  1  0.897349  0.104472  0.196770  1
  O  O23  1  0.927259  0.732305  0.293267  1
  O  O24  1  0.908688  0.095132  0.547575  1
  O  O25  1  0.927241  0.732614  0.622602  1
  O  O26  1  0.903186  0.093694  0.875859  1
  O  O27  1  0.754412  0.562251  0.117773  1
  O  O28  1  0.926947  0.734657  0.956252  1
  O  O29  1  0.779242  0.577490  0.449312  1
  O  O30  1  0.739197  0.941194  0.043195  1
  O  O31  1  0.759972  0.562041  0.787748  1
  O  O32  1  0.730568  0.935177  0.380279  1
  O  O33  1  0.596332  0.407601  0.285845  1
  O  O34  1  0.742965  0.935415  0.713778  1
  O  O35  1  0.601499  0.395883  0.636737  1
  O  O36  1  0.571121  0.767855  0.209849  1
  O  O37  1  0.434999  0.243616  0.118985  1
  O  O38  1  0.591929  0.404322  0.956929  1
  O  O39  1  0.571003  0.755330  0.545610  1
  O  O40  1  0.436204  0.229573  0.453773  1
  O  O41  1  0.394501  0.604152  0.043535  1
  O  O42  1  0.570486  0.767229  0.875422  1
  O  O43  1  0.439094  0.240855  0.787374  1
  O  O44  1  0.392566  0.598304  0.370785  1
  O  O45  1  0.256115  0.070238  0.287511  1
  O  O46  1  0.397430  0.602040  0.712269  1
  O  O47  1  0.233974  0.427366  0.211412  1
  O  O48  1  0.268930  0.069668  0.624499  1
  O  O49  1  0.265687  0.072274  0.957188  1
  O  O50  1  0.234056  0.424159  0.543990  1
  O  O51  1  0.061904  0.261578  0.045426  1
  O  O52  1  0.101922  0.898831  0.120061  1
  O  O53  1  0.233432  0.428644  0.876690  1
  O  O54  1  0.079078  0.277799  0.384578  1
  O  O55  1  0.100047  0.891562  0.463454  1
  O  O56  1  0.063174  0.255893  0.714238  1
  O  O57  1  0.102823  0.895173  0.789874  1
