# generated using pymatgen
data_NaSn
_symmetry_space_group_name_H-M   'P 1'
_cell_length_a   10.48463487
_cell_length_b   10.48463487
_cell_length_c   11.50637342
_cell_angle_alpha   117.10362258
_cell_angle_beta   117.10362260
_cell_angle_gamma   89.99999999
_symmetry_Int_Tables_number   1
_chemical_formula_structural   NaSn
_chemical_formula_sum   'Na16 Sn16'
_cell_volume   967.31791243
_cell_formula_units_Z   16
loop_
 _symmetry_equiv_pos_site_id
 _symmetry_equiv_pos_as_xyz
  1  'x, y, z'
loop_
 _atom_site_type_symbol
 _atom_site_label
 _atom_site_symmetry_multiplicity
 _atom_site_fract_x
 _atom_site_fract_y
 _atom_site_fract_z
 _atom_site_occupancy
  Na  Na1  1  0.127810  0.250000  0.500000  1
  Na  Na2  1  0.750000  0.127810  0.000000  1
  Na  Na3  1  0.250000  0.372190  0.000000  1
  Na  Na4  1  0.372190  0.750000  0.500000  1
  Na  Na5  1  0.872190  0.750000  0.500000  1
  Na  Na6  1  0.250000  0.872190  0.000000  1
  Na  Na7  1  0.750000  0.627810  0.000000  1
  Na  Na8  1  0.627810  0.250000  0.500000  1
  Na  Na9  1  0.497571  0.747571  0.250000  1
  Na  Na10  1  0.002429  0.497571  0.750000  1
  Na  Na11  1  0.747571  0.752429  0.750000  1
  Na  Na12  1  0.752429  0.002429  0.250000  1
  Na  Na13  1  0.502429  0.252429  0.750000  1
  Na  Na14  1  0.997571  0.502429  0.250000  1
  Na  Na15  1  0.252429  0.247571  0.250000  1
  Na  Na16  1  0.247571  0.997571  0.750000  1
  Sn  Sn17  1  0.005040  0.059263  0.872968  1
  Sn  Sn18  1  0.313706  0.005040  0.372968  1
  Sn  Sn19  1  0.059263  0.867928  0.372968  1
  Sn  Sn20  1  0.632072  0.440737  0.127032  1
  Sn  Sn21  1  0.494960  0.186294  0.127032  1
  Sn  Sn22  1  0.186294  0.632072  0.627032  1
  Sn  Sn23  1  0.440737  0.494960  0.627032  1
  Sn  Sn24  1  0.867928  0.313706  0.872968  1
  Sn  Sn25  1  0.994960  0.940737  0.127032  1
  Sn  Sn26  1  0.686294  0.994960  0.627032  1
  Sn  Sn27  1  0.940737  0.132072  0.627032  1
  Sn  Sn28  1  0.367928  0.559263  0.872968  1
  Sn  Sn29  1  0.505040  0.813706  0.872968  1
  Sn  Sn30  1  0.813706  0.367928  0.372968  1
  Sn  Sn31  1  0.559263  0.505040  0.372968  1
  Sn  Sn32  1  0.132072  0.686294  0.127032  1
