# generated using pymatgen
data_Li3Mn3O8
_symmetry_space_group_name_H-M   'P 1'
_cell_length_a   8.30310551
_cell_length_b   8.34016188
_cell_length_c   8.34042551
_cell_angle_alpha   90.21243980
_cell_angle_beta   90.95263168
_cell_angle_gamma   90.94820871
_symmetry_Int_Tables_number   1
_chemical_formula_structural   Li3Mn3O8
_chemical_formula_sum   'Li12 Mn12 O32'
_cell_volume   577.40466956
_cell_formula_units_Z   4
loop_
 _symmetry_equiv_pos_site_id
 _symmetry_equiv_pos_as_xyz
  1  'x, y, z'
loop_
 _atom_site_type_symbol
 _atom_site_label
 _atom_site_symmetry_multiplicity
 _atom_site_fract_x
 _atom_site_fract_y
 _atom_site_fract_z
 _atom_site_occupancy
  Li  Li1  1  0.999900  0.748428  0.251825  1
  Li  Li2  1  0.004266  0.808477  0.778302  1
  Li  Li3  1  0.140388  0.613885  0.608568  1
  Li  Li4  1  0.226968  0.180848  0.998409  1
  Li  Li5  1  0.369360  0.871025  0.378719  1
  Li  Li6  1  0.389918  0.386831  0.865308  1
  Li  Li7  1  0.500043  0.500709  0.499367  1
  Li  Li8  1  0.610401  0.134901  0.613163  1
  Li  Li9  1  0.630588  0.621433  0.128982  1
  Li  Li10  1  0.773153  0.002593  0.819424  1
  Li  Li11  1  0.859442  0.391185  0.386252  1
  Li  Li12  1  0.994611  0.221512  0.191364  1
  Mn  Mn13  1  0.000108  0.260132  0.739888  1
  Mn  Mn14  1  0.002523  0.498441  0.994556  1
  Mn  Mn15  1  0.247457  0.249154  0.495375  1
  Mn  Mn16  1  0.252430  0.492437  0.245430  1
  Mn  Mn17  1  0.258956  0.739341  0.004236  1
  Mn  Mn18  1  0.496252  0.245752  0.247616  1
  Mn  Mn19  1  0.500020  0.995276  0.004719  1
  Mn  Mn20  1  0.503858  0.752413  0.754262  1
  Mn  Mn21  1  0.740974  0.995655  0.260660  1
  Mn  Mn22  1  0.747522  0.754540  0.507541  1
  Mn  Mn23  1  0.752643  0.504614  0.750816  1
  Mn  Mn24  1  0.997440  0.005458  0.501522  1
  O  O25  1  0.016247  0.271261  0.965491  1
  O  O26  1  0.009806  0.242461  0.503861  1
  O  O27  1  0.017034  0.480090  0.220279  1
  O  O28  1  0.032855  0.726155  0.995513  1
  O  O29  1  0.219347  0.021341  0.487400  1
  O  O30  1  0.230454  0.267428  0.721287  1
  O  O31  1  0.241474  0.505438  0.009271  1
  O  O32  1  0.250122  0.477547  0.469152  1
  O  O33  1  0.256469  0.717517  0.232277  1
  O  O34  1  0.255385  0.256574  0.255165  1
  O  O35  1  0.274693  0.962226  0.009745  1
  O  O36  1  0.277342  0.736439  0.770494  1
  O  O37  1  0.471528  0.247785  0.476846  1
  O  O38  1  0.482387  0.470600  0.242005  1
  O  O39  1  0.471403  0.217776  0.018529  1
  O  O40  1  0.494674  0.758444  0.990445  1
  O  O41  1  0.505302  0.009532  0.241563  1
  O  O42  1  0.528830  0.981513  0.782282  1
  O  O43  1  0.517601  0.757931  0.529431  1
  O  O44  1  0.528597  0.523163  0.752132  1
  O  O45  1  0.722838  0.229386  0.263497  1
  O  O46  1  0.725368  0.990030  0.037846  1
  O  O47  1  0.744741  0.744823  0.743353  1
  O  O48  1  0.743435  0.767624  0.282517  1
  O  O49  1  0.749879  0.530810  0.522435  1
  O  O50  1  0.758488  0.990700  0.494536  1
  O  O51  1  0.769759  0.278639  0.732680  1
  O  O52  1  0.780602  0.512531  0.978633  1
  O  O53  1  0.967073  0.004244  0.273816  1
  O  O54  1  0.982865  0.779692  0.519760  1
  O  O55  1  0.990272  0.496178  0.757532  1
  O  O56  1  0.983916  0.034539  0.728684  1
