# generated using pymatgen
data_Li5BiO5
_symmetry_space_group_name_H-M   'P 1'
_cell_length_a   4.27386476
_cell_length_b   5.43769688
_cell_length_c   6.05401960
_cell_angle_alpha   108.08675613
_cell_angle_beta   90.00000000
_cell_angle_gamma   113.14035216
_symmetry_Int_Tables_number   1
_chemical_formula_structural   Li5BiO5
_chemical_formula_sum   'Li5 Bi1 O5'
_cell_volume   121.77904142
_cell_formula_units_Z   1
loop_
 _symmetry_equiv_pos_site_id
 _symmetry_equiv_pos_as_xyz
  1  'x, y, z'
loop_
 _atom_site_type_symbol
 _atom_site_label
 _atom_site_symmetry_multiplicity
 _atom_site_fract_x
 _atom_site_fract_y
 _atom_site_fract_z
 _atom_site_occupancy
  Li  Li1  1  0.701754  0.403509  0.352093  1
  Li  Li2  1  0.989280  0.978561  0.517466  1
  Li  Li3  1  0.307141  0.614281  0.154219  1
  Li  Li4  1  0.682770  0.365540  0.876641  1
  Li  Li5  1  0.281147  0.562295  0.671358  1
  O  O6  1  0.845595  0.691189  0.194801  1
  O  O7  1  0.496806  0.993612  0.023868  1
  O  O8  1  0.161696  0.323392  0.340388  1
  O  O9  1  0.829019  0.658037  0.688701  1
  O  O10  1  0.142134  0.284269  0.834179  1
  Bi  Bi11  1  0.994658  0.989316  0.016286  1
