# generated using pymatgen
data_NaMg7
_symmetry_space_group_name_H-M   'P 1'
_cell_length_a   6.45385565
_cell_length_b   6.45385511
_cell_length_c   5.29958926
_cell_angle_alpha   90.00000000
_cell_angle_beta   90.00000000
_cell_angle_gamma   120.00000269
_symmetry_Int_Tables_number   1
_chemical_formula_structural   NaMg7
_chemical_formula_sum   'Na1 Mg7'
_cell_volume   191.16628052
_cell_formula_units_Z   1
loop_
 _symmetry_equiv_pos_site_id
 _symmetry_equiv_pos_as_xyz
  1  'x, y, z'
loop_
 _atom_site_type_symbol
 _atom_site_label
 _atom_site_symmetry_multiplicity
 _atom_site_fract_x
 _atom_site_fract_y
 _atom_site_fract_z
 _atom_site_occupancy
  Na  Na1  1  0.166667  0.333333  0.250000  1
  Mg  Mg2  1  0.167378  0.833689  0.250000  1
  Mg  Mg3  1  0.666311  0.332622  0.250000  1
  Mg  Mg4  1  0.666311  0.833689  0.250000  1
  Mg  Mg5  1  0.334037  0.165963  0.750000  1
  Mg  Mg6  1  0.334037  0.668075  0.750000  1
  Mg  Mg7  1  0.831925  0.165963  0.750000  1
  Mg  Mg8  1  0.833333  0.666667  0.750000  1
