# generated using pymatgen
data_LiMn3O6
_symmetry_space_group_name_H-M   'P 1'
_cell_length_a   6.69489647
_cell_length_b   13.69292429
_cell_length_c   5.85128993
_cell_angle_alpha   77.30158249
_cell_angle_beta   63.04334046
_cell_angle_gamma   96.95014822
_symmetry_Int_Tables_number   1
_chemical_formula_structural   LiMn3O6
_chemical_formula_sum   'Li4 Mn12 O24'
_cell_volume   451.16151237
_cell_formula_units_Z   4
loop_
 _symmetry_equiv_pos_site_id
 _symmetry_equiv_pos_as_xyz
  1  'x, y, z'
loop_
 _atom_site_type_symbol
 _atom_site_label
 _atom_site_symmetry_multiplicity
 _atom_site_fract_x
 _atom_site_fract_y
 _atom_site_fract_z
 _atom_site_occupancy
  Li  Li1  1  0.144682  0.821849  0.268689  1
  Li  Li2  1  0.142176  0.321127  0.278039  1
  Li  Li3  1  0.519699  0.008127  0.239580  1
  Li  Li4  1  0.520647  0.512503  0.729606  1
  Mn  Mn5  1  0.989164  0.507809  0.002080  1
  Mn  Mn6  1  0.333134  0.670258  0.498932  1
  Mn  Mn7  1  0.003623  0.998884  0.002806  1
  Mn  Mn8  1  0.332319  0.166206  0.497942  1
  Mn  Mn9  1  0.332473  0.669525  -0.000540  1
  Mn  Mn10  1  0.665267  0.830915  0.504951  1
  Mn  Mn11  1  0.331939  0.166603  0.998469  1
  Mn  Mn12  1  0.665416  0.332835  0.498036  1
  Mn  Mn13  1  0.684554  0.825036  0.995005  1
  Mn  Mn14  1  0.687594  0.324975  0.989984  1
  Mn  Mn15  1  0.006366  0.503153  0.498049  1
  Mn  Mn16  1  0.979540  0.006096  0.511709  1
  O  O17  1  0.124881  0.668745  0.357777  1
  O  O18  1  0.221492  0.515749  0.123072  1
  O  O19  1  0.124200  0.171094  0.352849  1
  O  O20  1  0.108410  0.657661  0.871494  1
  O  O21  1  0.216725  0.015485  0.143534  1
  O  O22  1  0.234839  0.521976  0.642174  1
  O  O23  1  0.452848  0.821683  0.356531  1
  O  O24  1  0.110191  0.151973  0.870320  1
  O  O25  1  0.547099  0.673914  0.135659  1
  O  O26  1  0.220902  0.016525  0.625460  1
  O  O27  1  0.451343  0.316102  0.353884  1
  O  O28  1  0.423716  0.815403  0.863924  1
  O  O29  1  0.539424  0.161231  0.142705  1
  O  O30  1  0.552996  0.676543  0.631586  1
  O  O31  1  0.759048  0.982453  0.370038  1
  O  O32  1  0.441689  0.316489  0.870821  1
  O  O33  1  0.918972  0.850569  0.147029  1
  O  O34  1  0.553564  0.179750  0.627276  1
  O  O35  1  0.757523  0.483344  0.383472  1
  O  O36  1  0.774080  0.982357  0.891153  1
  O  O37  1  0.906975  0.355048  0.131855  1
  O  O38  1  0.881649  0.835724  0.626881  1
  O  O39  1  0.786053  0.494363  0.852759  1
  O  O40  1  0.890170  0.338675  0.617094  1
