# generated using pymatgen
data_LiMn2O4
_symmetry_space_group_name_H-M   'P 1'
_cell_length_a   8.66131541
_cell_length_b   13.12435198
_cell_length_c   13.17250947
_cell_angle_alpha   83.80148183
_cell_angle_beta   70.82430690
_cell_angle_gamma   70.77224990
_symmetry_Int_Tables_number   1
_chemical_formula_structural   LiMn2O4
_chemical_formula_sum   'Li18 Mn36 O72'
_cell_volume   1335.39967433
_cell_formula_units_Z   18
loop_
 _symmetry_equiv_pos_site_id
 _symmetry_equiv_pos_as_xyz
  1  'x, y, z'
loop_
 _atom_site_type_symbol
 _atom_site_label
 _atom_site_symmetry_multiplicity
 _atom_site_fract_x
 _atom_site_fract_y
 _atom_site_fract_z
 _atom_site_occupancy
  Li  Li1  1  0.790139  0.749867  0.420175  1
  Li  Li2  1  0.460112  0.749671  0.080561  1
  Li  Li3  1  0.206492  0.917238  0.913550  1
  Li  Li4  1  0.795025  0.082227  0.086271  1
  Li  Li5  1  0.877801  0.917065  0.586335  1
  Li  Li6  1  0.206734  0.587431  0.249968  1
  Li  Li7  1  0.456716  0.087001  0.750139  1
  Li  Li8  1  0.875410  0.249927  0.250552  1
  Li  Li9  1  0.540804  0.249980  0.919233  1
  Li  Li10  1  0.794423  0.412246  0.750365  1
  Li  Li11  1  0.544766  0.912265  0.249828  1
  Li  Li12  1  0.119234  0.416868  0.086513  1
  Li  Li13  1  0.464040  0.416583  0.414215  1
  Li  Li14  1  0.210215  0.249512  0.580398  1
  Li  Li15  1  0.882274  0.582472  0.913240  1
  Li  Li16  1  0.536965  0.582859  0.586218  1
  Li  Li17  1  0.125271  0.749522  0.749711  1
  Li  Li18  1  0.123121  0.082366  0.414350  1
  Mn  Mn19  1  0.832265  0.333346  0.495373  1
  Mn  Mn20  1  0.996703  0.168283  0.835294  1
  Mn  Mn21  1  0.165050  0.831282  0.335244  1
  Mn  Mn22  1  0.670490  0.502867  0.165225  1
  Mn  Mn23  1  0.160358  0.166432  0.005437  1
  Mn  Mn24  1  0.165819  0.996655  0.165232  1
  Mn  Mn25  1  0.500898  0.668594  0.335451  1
  Mn  Mn26  1  0.168845  0.666473  0.505464  1
  Mn  Mn27  1  0.505796  0.165923  0.330587  1
  Mn  Mn28  1  0.169616  0.330857  0.834671  1
  Mn  Mn29  1  0.004427  0.831054  0.164825  1
  Mn  Mn30  1  0.841786  0.832812  0.993998  1
  Mn  Mn31  1  0.673746  0.165983  0.495314  1
  Mn  Mn32  1  0.331160  0.496747  0.834498  1
  Mn  Mn33  1  0.503339  0.333013  0.169645  1
  Mn  Mn34  1  0.835962  0.333234  0.005731  1
  Mn  Mn35  1  0.326537  0.833138  0.505544  1
  Mn  Mn36  1  0.000245  0.500050  0.499913  1
  Mn  Mn37  1  0.827116  0.503000  0.335892  1
  Mn  Mn38  1  0.836471  0.666597  0.669506  1
  Mn  Mn39  1  0.328598  0.166159  0.169656  1
  Mn  Mn40  1  0.164429  0.332861  0.330569  1
  Mn  Mn41  1  0.495312  0.833412  0.669489  1
  Mn  Mn42  1  0.500507  0.500094  0.000198  1
  Mn  Mn43  1  0.672793  0.833083  0.830372  1
  Mn  Mn44  1  0.500744  0.999639  0.000098  1
  Mn  Mn45  1  0.500431  0.999524  0.499947  1
  Mn  Mn46  1  0.497968  0.666603  0.830630  1
  Mn  Mn47  1  0.173204  0.496368  0.664616  1
  Mn  Mn48  1  0.163008  0.002712  0.665176  1
  Mn  Mn49  1  0.831493  0.668423  0.164802  1
  Mn  Mn50  1  0.165199  0.666466  0.993866  1
  Mn  Mn51  1  0.837998  0.996597  0.335445  1
  Mn  Mn52  1  0.835819  0.168349  0.665276  1
  Mn  Mn53  1  0.500440  0.331175  0.665001  1
  Mn  Mn54  1  0.835041  0.002921  0.834543  1
  O  O55  1  0.566595  0.171806  0.176190  1
  O  O56  1  0.392921  0.003216  0.157809  1
  O  O57  1  0.768802  0.822548  0.149493  1
  O  O58  1  0.237053  0.842750  0.171553  1
  O  O59  1  0.246062  0.510706  0.988640  1
  O  O60  1  0.068689  0.823382  0.998680  1
  O  O61  1  0.763289  0.156901  0.827503  1
  O  O62  1  0.754392  0.010560  0.489426  1
  O  O63  1  0.760278  0.323002  0.650936  1
  O  O64  1  0.612594  0.839758  0.987645  1
  O  O65  1  0.418523  0.325988  0.323533  1
  O  O66  1  0.888513  0.511614  0.177698  1
  O  O67  1  0.605397  0.002726  0.341913  1
  O  O68  1  0.924379  0.011107  0.676749  1
  O  O69  1  0.766205  0.988701  0.988626  1
  O  O70  1  0.932960  0.176038  0.000470  1
  O  O71  1  0.583666  0.673417  0.676467  1
  O  O72  1  0.052805  0.497287  0.342379  1
  O  O73  1  0.946780  0.503003  0.657778  1
  O  O74  1  0.235020  0.010761  0.011262  1
  O  O75  1  0.068200  0.323191  0.000504  1
  O  O76  1  0.906077  0.346848  0.341219  1
  O  O77  1  0.753389  0.152735  0.340863  1
  O  O78  1  0.450766  0.497208  0.157882  1
  O  O79  1  0.757090  0.488718  0.489906  1
  O  O80  1  0.389057  0.159431  0.012245  1
  O  O81  1  0.590291  0.176458  0.650766  1
  O  O82  1  0.741625  0.826875  0.676600  1
  O  O83  1  0.935313  0.988159  0.177200  1
  O  O84  1  0.550552  0.503106  0.842417  1
  O  O85  1  0.242631  0.676820  0.349576  1
  O  O86  1  0.548427  0.840041  0.512264  1
  O  O87  1  0.409706  0.342493  0.827269  1
  O  O88  1  0.594250  0.657066  0.170959  1
  O  O89  1  0.390701  0.676332  0.500921  1
  O  O90  1  0.600286  0.340149  0.012478  1
  O  O91  1  0.400597  0.659893  0.987794  1
  O  O92  1  0.093096  0.652744  0.659655  1
  O  O93  1  0.755563  0.488817  0.011249  1
  O  O94  1  0.247464  0.846539  0.659865  1
  O  O95  1  0.065162  0.011089  0.823241  1
  O  O96  1  0.233441  0.176515  0.850071  1
  O  O97  1  0.095699  0.153045  0.160188  1
  O  O98  1  0.452498  0.158969  0.487790  1
  O  O99  1  0.934515  0.676402  0.997665  1
  O  O100  1  0.254299  0.652800  0.839657  1
  O  O101  1  0.939805  0.659913  0.512385  1
  O  O102  1  0.920564  0.842571  0.329301  1
  O  O103  1  0.109199  0.823512  0.500271  1
  O  O104  1  0.600358  0.511438  0.323454  1
  O  O105  1  0.410017  0.822792  0.349835  1
  O  O106  1  0.080922  0.676731  0.149967  1
  O  O107  1  0.112749  0.487761  0.822551  1
  O  O108  1  0.749038  0.656886  0.330807  1
  O  O109  1  0.243351  0.510868  0.510525  1
  O  O110  1  0.918706  0.322712  0.850078  1
  O  O111  1  0.061088  0.340062  0.487718  1
  O  O112  1  0.745444  0.673540  0.823408  1
  O  O113  1  0.608902  0.323328  0.501304  1
  O  O114  1  0.246345  0.988804  0.511116  1
  O  O115  1  0.076762  0.988344  0.323354  1
  O  O116  1  0.905250  0.846558  0.839415  1
  O  O117  1  0.891480  0.175910  0.501440  1
  O  O118  1  0.260208  0.171859  0.323549  1
  O  O119  1  0.434896  0.827364  0.823908  1
  O  O120  1  0.747736  0.346875  0.160090  1
  O  O121  1  0.399942  0.488469  0.676479  1
  O  O122  1  0.255463  0.325663  0.176731  1
  O  O123  1  0.396295  0.996094  0.658094  1
  O  O124  1  0.081271  0.156587  0.671967  1
  O  O125  1  0.249204  0.342694  0.670515  1
  O  O126  1  0.607978  0.996108  0.842195  1
