# generated using pymatgen
data_LiMn2O4
_symmetry_space_group_name_H-M   'P 1'
_cell_length_a   6.64773391
_cell_length_b   6.63487507
_cell_length_c   11.00261500
_cell_angle_alpha   74.11314200
_cell_angle_beta   85.92281879
_cell_angle_gamma   98.53524983
_symmetry_Int_Tables_number   1
_chemical_formula_structural   LiMn2O4
_chemical_formula_sum   'Li6 Mn12 O24'
_cell_volume   458.38991921
_cell_formula_units_Z   6
loop_
 _symmetry_equiv_pos_site_id
 _symmetry_equiv_pos_as_xyz
  1  'x, y, z'
loop_
 _atom_site_type_symbol
 _atom_site_label
 _atom_site_symmetry_multiplicity
 _atom_site_fract_x
 _atom_site_fract_y
 _atom_site_fract_z
 _atom_site_occupancy
  Li  Li1  1  0.989317  0.490009  0.865844  1
  Li  Li2  1  0.876393  0.366943  0.639619  1
  Li  Li3  1  0.719444  0.219762  0.135235  1
  Li  Li4  1  0.522648  0.013427  0.633844  1
  Li  Li5  1  0.367519  0.861237  0.120446  1
  Li  Li6  1  0.115879  0.628342  0.373990  1
  Mn  Mn7  1  0.920205  0.914459  0.745540  1
  Mn  Mn8  1  0.822122  0.845553  0.496382  1
  Mn  Mn9  1  0.663163  0.669798  0.998174  1
  Mn  Mn10  1  0.751440  0.746325  0.249434  1
  Mn  Mn11  1  0.585150  0.575256  0.752352  1
  Mn  Mn12  1  0.488075  0.517477  0.496711  1
  Mn  Mn13  1  0.336157  0.323930  0.007546  1
  Mn  Mn14  1  0.420902  0.415914  0.250458  1
  Mn  Mn15  1  0.262512  0.238037  0.753134  1
  Mn  Mn16  1  0.163607  0.176018  0.493741  1
  Mn  Mn17  1  0.002690  0.992553  0.000212  1
  Mn  Mn18  1  0.078591  0.085663  0.250116  1
  O  O19  1  0.969659  0.171126  0.800784  1
  O  O20  1  0.953465  0.759594  0.918888  1
  O  O21  1  0.874856  0.080278  0.574003  1
  O  O22  1  0.883602  0.651937  0.697728  1
  O  O23  1  0.791605  0.011800  0.292867  1
  O  O24  1  0.784613  0.603979  0.425304  1
  O  O25  1  0.625626  0.406551  0.955085  1
  O  O26  1  0.705487  0.488282  0.198384  1
  O  O27  1  0.632929  0.839297  0.797428  1
  O  O28  1  0.547952  0.330359  0.684330  1
  O  O29  1  0.713494  0.904230  0.075584  1
  O  O30  1  0.540612  0.758325  0.563434  1
  O  O31  1  0.448146  0.268093  0.428546  1
  O  O32  1  0.293904  0.067633  0.958415  1
  O  O33  1  0.454638  0.676948  0.293452  1
  O  O34  1  0.374612  0.168535  0.182885  1
  O  O35  1  0.291458  0.468913  0.837127  1
  O  O36  1  0.215243  0.018417  0.664332  1
  O  O37  1  0.376985  0.570474  0.078156  1
  O  O38  1  0.188794  0.429600  0.543468  1
  O  O39  1  0.128532  0.331899  0.317048  1
  O  O40  1  0.111207  0.933303  0.422384  1
  O  O41  1  0.041501  0.237979  0.072490  1
  O  O42  1  0.047084  0.824692  0.203957  1
