# generated using pymatgen
data_NaSe2
_symmetry_space_group_name_H-M   'P 1'
_cell_length_a   9.56580538
_cell_length_b   9.56580538
_cell_length_c   9.56580538
_cell_angle_alpha   99.12170353
_cell_angle_beta   114.88093394
_cell_angle_gamma   114.88093392
_symmetry_Int_Tables_number   1
_chemical_formula_structural   NaSe2
_chemical_formula_sum   'Na8 Se16'
_cell_volume   657.77364817
_cell_formula_units_Z   8
loop_
 _symmetry_equiv_pos_site_id
 _symmetry_equiv_pos_as_xyz
  1  'x, y, z'
loop_
 _atom_site_type_symbol
 _atom_site_label
 _atom_site_symmetry_multiplicity
 _atom_site_fract_x
 _atom_site_fract_y
 _atom_site_fract_z
 _atom_site_occupancy
  Na  Na1  1  0.497286  0.875000  0.872286  1
  Na  Na2  1  0.002714  0.127714  0.625000  1
  Na  Na3  1  0.997286  0.622286  0.125000  1
  Na  Na4  1  0.502714  0.375000  0.377714  1
  Na  Na5  1  0.500000  0.939642  0.439642  1
  Na  Na6  1  0.500000  0.560358  0.060359  1
  Na  Na7  1  0.000000  0.810358  0.810358  1
  Na  Na8  1  0.000000  0.189641  0.189641  1
  Se  Se9  1  0.260504  0.525325  0.543333  1
  Se  Se10  1  0.981992  0.456667  0.717171  1
  Se  Se11  1  0.018008  0.735179  0.474675  1
  Se  Se12  1  0.481992  0.467171  0.706667  1
  Se  Se13  1  0.518008  0.224675  0.985179  1
  Se  Se14  1  0.739496  0.282829  0.264821  1
  Se  Se15  1  0.760504  0.293333  0.775325  1
  Se  Se16  1  0.239496  0.014821  0.532829  1
  Se  Se17  1  0.209398  0.024758  0.272034  1
  Se  Se18  1  0.790602  0.062637  0.815360  1
  Se  Se19  1  0.709398  0.022034  0.274758  1
  Se  Se20  1  0.247277  0.184640  0.975242  1
  Se  Se21  1  0.752723  0.727966  0.937363  1
  Se  Se22  1  0.747277  0.725242  0.434640  1
  Se  Se23  1  0.252723  0.687363  0.977966  1
  Se  Se24  1  0.290602  0.565360  0.312637  1
