# generated using pymatgen
data_Li5Mn5O12
_symmetry_space_group_name_H-M   'P 1'
_cell_length_a   5.13842724
_cell_length_b   5.05125432
_cell_length_c   19.75772807
_cell_angle_alpha   92.41319309
_cell_angle_beta   84.24177870
_cell_angle_gamma   120.85142267
_symmetry_Int_Tables_number   1
_chemical_formula_structural   Li5Mn5O12
_chemical_formula_sum   'Li10 Mn10 O24'
_cell_volume   438.00978487
_cell_formula_units_Z   2
loop_
 _symmetry_equiv_pos_site_id
 _symmetry_equiv_pos_as_xyz
  1  'x, y, z'
loop_
 _atom_site_type_symbol
 _atom_site_label
 _atom_site_symmetry_multiplicity
 _atom_site_fract_x
 _atom_site_fract_y
 _atom_site_fract_z
 _atom_site_occupancy
  Li  Li1  1  0.077590  0.177077  0.734664  1
  Li  Li2  1  0.128496  0.506562  0.624942  1
  Li  Li3  1  0.275471  0.496459  0.235732  1
  Li  Li4  1  0.582304  0.187373  0.234146  1
  Li  Li5  1  0.472198  0.496996  0.514122  1
  Li  Li6  1  0.621465  0.495642  0.124638  1
  Li  Li7  1  0.853832  0.188082  0.515875  1
  Li  Li8  1  0.968945  0.493610  0.014489  1
  Li  Li9  1  0.772864  0.490697  0.735693  1
  Li  Li10  1  0.666833  0.808501  0.014980  1
  Mn  Mn11  1  0.211641  0.173387  0.375127  1
  Mn  Mn12  1  0.450572  0.150874  0.625144  1
  Mn  Mn13  1  0.959055  0.158231  0.125130  1
  Mn  Mn14  1  0.377806  0.505486  0.874744  1
  Mn  Mn15  1  0.710735  0.173945  0.875608  1
  Mn  Mn16  1  0.286329  0.833222  0.124714  1
  Mn  Mn17  1  0.044923  0.836585  0.874708  1
  Mn  Mn18  1  0.879458  0.509070  0.374798  1
  Mn  Mn19  1  0.542617  0.835278  0.374962  1
  Mn  Mn20  1  0.787551  0.825772  0.625096  1
  O  O21  1  0.258296  0.151374  0.177593  1
  O  O22  1  0.142224  0.144353  0.572180  1
  O  O23  1  0.523807  0.171213  0.424881  1
  O  O24  1  0.026810  0.500260  0.819490  1
  O  O25  1  0.654655  0.137176  0.070675  1
  O  O26  1  0.280934  0.505891  0.069696  1
  O  O27  1  0.222278  0.494876  0.431198  1
  O  O28  1  0.401323  0.179310  0.825435  1
  O  O29  1  0.750217  0.139964  0.677970  1
  O  O30  1  0.525127  0.501117  0.318880  1
  O  O31  1  0.900685  0.175859  0.324999  1
  O  O32  1  0.461036  0.478857  0.680331  1
  O  O33  1  0.088284  0.843860  0.679346  1
  O  O34  1  0.242245  0.845211  0.324698  1
  O  O35  1  0.008256  0.160557  0.926149  1
  O  O36  1  0.770951  0.484702  0.569898  1
  O  O37  1  0.727726  0.510192  0.930857  1
  O  O38  1  0.964815  0.485921  0.180097  1
  O  O39  1  0.590372  0.854480  0.179191  1
  O  O40  1  0.354658  0.830803  0.924503  1
  O  O41  1  0.507143  0.848018  0.570921  1
  O  O42  1  0.849397  0.839071  0.425283  1
  O  O43  1  0.986971  0.840259  0.072265  1
  O  O44  1  0.748511  0.851368  0.823914  1
