# generated using pymatgen
data_Li5Mn5O12
_symmetry_space_group_name_H-M   'P 1'
_cell_length_a   5.01966299
_cell_length_b   8.88587651
_cell_length_c   9.41587477
_cell_angle_alpha   95.83602241
_cell_angle_beta   95.08070428
_cell_angle_gamma   86.21818544
_symmetry_Int_Tables_number   1
_chemical_formula_structural   Li5Mn5O12
_chemical_formula_sum   'Li10 Mn10 O24'
_cell_volume   415.48032658
_cell_formula_units_Z   2
loop_
 _symmetry_equiv_pos_site_id
 _symmetry_equiv_pos_as_xyz
  1  'x, y, z'
loop_
 _atom_site_type_symbol
 _atom_site_label
 _atom_site_symmetry_multiplicity
 _atom_site_fract_x
 _atom_site_fract_y
 _atom_site_fract_z
 _atom_site_occupancy
  Li  Li1  1  0.005526  0.826385  0.488340  1
  Li  Li2  1  0.743762  0.919575  0.006572  1
  Li  Li3  1  0.619066  0.463551  0.243536  1
  Li  Li4  1  0.635246  0.130319  0.255475  1
  Li  Li5  1  0.486359  0.663047  0.490588  1
  Li  Li6  1  0.518095  0.316427  0.488977  1
  Li  Li7  1  0.266013  0.089773  0.015509  1
  Li  Li8  1  0.245031  0.430955  0.011367  1
  Li  Li9  1  0.113919  0.964053  0.254557  1
  Li  Li10  1  0.102184  0.622133  0.242947  1
  Mn  Mn11  1  0.992998  0.491329  0.495780  1
  Mn  Mn12  1  0.863904  0.710485  0.751104  1
  Mn  Mn13  1  0.889610  0.039603  0.744570  1
  Mn  Mn14  1  0.751104  0.262758  0.003649  1
  Mn  Mn15  1  0.628631  0.787116  0.245941  1
  Mn  Mn16  1  0.487270  0.997287  0.492754  1
  Mn  Mn17  1  0.394362  0.539183  0.750013  1
  Mn  Mn18  1  0.359797  0.208417  0.746847  1
  Mn  Mn19  1  0.249235  0.754873  0.003784  1
  Mn  Mn20  1  0.129449  0.287803  0.252782  1
  O  O21  1  0.935181  0.415797  0.121805  1
  O  O22  1  0.944536  0.130064  0.133070  1
  O  O23  1  0.929146  0.785766  0.139103  1
  O  O24  1  0.839010  0.331220  0.383416  1
  O  O25  1  0.807909  0.641259  0.378139  1
  O  O26  1  0.766016  0.957059  0.367727  1
  O  O27  1  0.728405  0.871238  0.630162  1
  O  O28  1  0.700141  0.544711  0.632924  1
  O  O29  1  0.657311  0.160943  0.622755  1
  O  O30  1  0.560454  0.706805  0.857905  1
  O  O31  1  0.598290  0.088381  0.875667  1
  O  O32  1  0.427855  0.915347  0.114922  1
  O  O33  1  0.428517  0.629026  0.136395  1
  O  O34  1  0.517953  0.377406  0.866897  1
  O  O35  1  0.424710  0.273813  0.132918  1
  O  O36  1  0.335969  0.829890  0.387044  1
  O  O37  1  0.330389  0.140966  0.373328  1
  O  O38  1  0.273347  0.462479  0.372358  1
  O  O39  1  0.232172  0.373189  0.631716  1
  O  O40  1  0.202504  0.038518  0.637031  1
  O  O41  1  0.168518  0.659374  0.619570  1
  O  O42  1  0.103528  0.586229  0.872573  1
  O  O43  1  0.063404  0.201530  0.859617  1
  O  O44  1  0.021869  0.880150  0.868830  1
