# generated using pymatgen
data_NaIn3
_symmetry_space_group_name_H-M   'P 1'
_cell_length_a   6.66630494
_cell_length_b   6.66630438
_cell_length_c   5.55408330
_cell_angle_alpha   90.00000000
_cell_angle_beta   90.00000000
_cell_angle_gamma   120.00000278
_symmetry_Int_Tables_number   1
_chemical_formula_structural   NaIn3
_chemical_formula_sum   'Na2 In6'
_cell_volume   213.75354392
_cell_formula_units_Z   2
loop_
 _symmetry_equiv_pos_site_id
 _symmetry_equiv_pos_as_xyz
  1  'x, y, z'
loop_
 _atom_site_type_symbol
 _atom_site_label
 _atom_site_symmetry_multiplicity
 _atom_site_fract_x
 _atom_site_fract_y
 _atom_site_fract_z
 _atom_site_occupancy
  Na  Na1  1  0.666667  0.333334  0.250002  1
  Na  Na2  1  0.333334  0.666668  0.750002  1
  In  In3  1  0.837245  0.162756  0.750002  1
  In  In4  1  0.325511  0.162756  0.750002  1
  In  In5  1  0.837244  0.674487  0.750002  1
  In  In6  1  0.162755  0.837244  0.250002  1
  In  In7  1  0.674489  0.837244  0.250002  1
  In  In8  1  0.162756  0.325513  0.250002  1
