# generated using pymatgen
data_KTm
_symmetry_space_group_name_H-M   'P 1'
_cell_length_a   3.59665756
_cell_length_b   3.59659456
_cell_length_c   7.16453917
_cell_angle_alpha   89.98394121
_cell_angle_beta   90.01600246
_cell_angle_gamma   120.00410663
_symmetry_Int_Tables_number   1
_chemical_formula_structural   KTm
_chemical_formula_sum   'K1 Tm1'
_cell_volume   80.25857992
_cell_formula_units_Z   1
loop_
 _symmetry_equiv_pos_site_id
 _symmetry_equiv_pos_as_xyz
  1  'x, y, z'
loop_
 _atom_site_type_symbol
 _atom_site_label
 _atom_site_symmetry_multiplicity
 _atom_site_fract_x
 _atom_site_fract_y
 _atom_site_fract_z
 _atom_site_occupancy
  K  K1  1  0.666673  0.333334  0.750001  1
  Tm  Tm2  1  0.333327  0.666668  0.249999  1
