# generated using pymatgen
data_LiMnO2
_symmetry_space_group_name_H-M   'P 1'
_cell_length_a   5.76152769
_cell_length_b   5.76149295
_cell_length_c   31.05654494
_cell_angle_alpha   117.63396298
_cell_angle_beta   117.62431034
_cell_angle_gamma   89.99975122
_symmetry_Int_Tables_number   1
_chemical_formula_structural   LiMnO2
_chemical_formula_sum   'Li20 Mn20 O40'
_cell_volume   778.24712429
_cell_formula_units_Z   20
loop_
 _symmetry_equiv_pos_site_id
 _symmetry_equiv_pos_as_xyz
  1  'x, y, z'
loop_
 _atom_site_type_symbol
 _atom_site_label
 _atom_site_symmetry_multiplicity
 _atom_site_fract_x
 _atom_site_fract_y
 _atom_site_fract_z
 _atom_site_occupancy
  Li  Li1  1  0.992909  0.986955  0.893430  1
  Li  Li2  1  0.991715  0.991537  0.794453  1
  Li  Li3  1  0.992286  0.485302  0.794690  1
  Li  Li4  1  0.997838  0.989365  0.695297  1
  Li  Li5  1  0.485689  0.987681  0.893715  1
  Li  Li6  1  0.001350  0.994305  0.596709  1
  Li  Li7  1  0.000605  0.489959  0.596402  1
  Li  Li8  1  0.989764  0.991746  0.993040  1
  Li  Li9  1  0.493768  0.990382  0.695718  1
  Li  Li10  1  0.999788  0.992646  0.394662  1
  Li  Li11  1  0.999530  0.485560  0.394549  1
  Li  Li12  1  0.002679  0.986230  0.493895  1
  Li  Li13  1  0.511923  0.000356  0.499567  1
  Li  Li14  1  0.997524  0.994077  0.194124  1
  Li  Li15  1  0.997094  0.486658  0.193971  1
  Li  Li16  1  0.000706  0.986530  0.292993  1
  Li  Li17  1  0.497205  0.991058  0.294806  1
  Li  Li18  1  0.996310  0.985471  0.091940  1
  Li  Li19  1  0.502021  0.998074  0.097007  1
  Li  Li20  1  0.991395  0.485562  0.993647  1
  Mn  Mn21  1  0.999416  0.496612  0.897331  1
  Mn  Mn22  1  0.002646  0.496802  0.698219  1
  Mn  Mn23  1  0.498274  0.496211  0.897158  1
  Mn  Mn24  1  0.499784  0.996322  0.797629  1
  Mn  Mn25  1  0.499719  0.495906  0.797605  1
  Mn  Mn26  1  0.007719  0.498289  0.498680  1
  Mn  Mn27  1  0.502134  0.496427  0.698067  1
  Mn  Mn28  1  0.504926  0.497390  0.598513  1
  Mn  Mn29  1  0.504988  0.997397  0.598537  1
  Mn  Mn30  1  0.008056  0.499042  0.297990  1
  Mn  Mn31  1  0.506856  0.497510  0.498384  1
  Mn  Mn32  1  0.507624  0.498155  0.398257  1
  Mn  Mn33  1  0.507723  0.998403  0.398278  1
  Mn  Mn34  1  0.002833  0.498555  0.097276  1
  Mn  Mn35  1  0.506725  0.498304  0.297696  1
  Mn  Mn36  1  0.504858  0.498628  0.197479  1
  Mn  Mn37  1  0.504810  0.998891  0.197452  1
  Mn  Mn38  1  0.501741  0.498006  0.097068  1
  Mn  Mn39  1  0.499487  0.497333  0.997138  1
  Mn  Mn40  1  0.499447  0.997737  0.997111  1
  O  O41  1  0.269042  0.748106  0.997326  1
  O  O42  1  0.250849  0.267086  0.898026  1
  O  O43  1  0.250503  0.729479  0.897890  1
  O  O44  1  0.271048  0.748621  0.798623  1
  O  O45  1  0.270447  0.248073  0.798400  1
  O  O46  1  0.733091  0.749687  0.997942  1
  O  O47  1  0.254066  0.267235  0.698890  1
  O  O48  1  0.254177  0.729758  0.698933  1
  O  O49  1  0.750862  0.267311  0.898096  1
  O  O50  1  0.750786  0.729777  0.898065  1
  O  O51  1  0.276780  0.750393  0.599745  1
  O  O52  1  0.277959  0.251329  0.600109  1
  O  O53  1  0.733723  0.748893  0.798731  1
  O  O54  1  0.732529  0.247731  0.798266  1
  O  O55  1  0.261271  0.270550  0.500090  1
  O  O56  1  0.261429  0.733186  0.500157  1
  O  O57  1  0.755486  0.268381  0.699332  1
  O  O58  1  0.755489  0.730741  0.699336  1
  O  O59  1  0.276215  0.747682  0.398038  1
  O  O60  1  0.280449  0.252274  0.399876  1
  O  O61  1  0.739566  0.750562  0.599808  1
  O  O62  1  0.737742  0.248563  0.598998  1
  O  O63  1  0.259927  0.269631  0.298836  1
  O  O64  1  0.260221  0.732798  0.298962  1
  O  O65  1  0.759623  0.268725  0.499388  1
  O  O66  1  0.759652  0.731420  0.499397  1
  O  O67  1  0.275671  0.750950  0.198321  1
  O  O68  1  0.277958  0.252928  0.199119  1
  O  O69  1  0.741548  0.750413  0.399140  1
  O  O70  1  0.742327  0.251486  0.399563  1
  O  O71  1  0.255732  0.270569  0.098540  1
  O  O72  1  0.255296  0.732603  0.098367  1
  O  O73  1  0.758905  0.268685  0.298392  1
  O  O74  1  0.759151  0.731591  0.298491  1
  O  O75  1  0.271032  0.250346  0.998230  1
  O  O76  1  0.738383  0.750870  0.198294  1
  O  O77  1  0.737057  0.249421  0.197717  1
  O  O78  1  0.754457  0.269077  0.097998  1
  O  O79  1  0.754314  0.731580  0.097945  1
  O  O80  1  0.733368  0.250116  0.998143  1
