# generated using pymatgen
data_LiMn12O24
_symmetry_space_group_name_H-M   'P 1'
_cell_length_a   11.70950424
_cell_length_b   21.12337362
_cell_length_c   15.51054454
_cell_angle_alpha   19.35490925
_cell_angle_beta   55.44892478
_cell_angle_gamma   46.08897156
_symmetry_Int_Tables_number   1
_chemical_formula_structural   LiMn12O24
_chemical_formula_sum   'Li2 Mn24 O48'
_cell_volume   852.70801716
_cell_formula_units_Z   2
loop_
 _symmetry_equiv_pos_site_id
 _symmetry_equiv_pos_as_xyz
  1  'x, y, z'
loop_
 _atom_site_type_symbol
 _atom_site_label
 _atom_site_symmetry_multiplicity
 _atom_site_fract_x
 _atom_site_fract_y
 _atom_site_fract_z
 _atom_site_occupancy
  Li  Li1  1  0.250015  0.625214  0.124794  1
  Li  Li2  1  0.749988  0.374781  0.875214  1
  Mn  Mn3  1  0.167769  0.165598  0.001313  1
  Mn  Mn4  1  0.250505  0.000745  0.498038  1
  Mn  Mn5  1  0.166507  0.168213  0.498067  1
  Mn  Mn6  1  0.666508  0.166200  0.000075  1
  Mn  Mn7  1  0.083090  0.332624  0.500456  1
  Mn  Mn8  1  0.416919  0.165002  0.501901  1
  Mn  Mn9  1  0.500041  0.499852  0.000186  1
  Mn  Mn10  1  0.749437  0.999360  0.501867  1
  Mn  Mn11  1  0.249412  0.499308  0.501926  1
  Mn  Mn12  1  0.667748  0.165022  0.501894  1
  Mn  Mn13  1  0.333483  0.833836  0.999876  1
  Mn  Mn14  1  0.584143  0.332569  0.501140  1
  Mn  Mn15  1  0.500019  0.499995  0.500007  1
  Mn  Mn16  1  0.084127  0.831729  0.501994  1
  Mn  Mn17  1  0.915856  0.168293  0.497984  1
  Mn  Mn18  1  -0.000011  0.500015  -0.000008  1
  Mn  Mn19  1  0.415884  0.667422  0.498858  1
  Mn  Mn20  1  0.750554  0.500671  0.498103  1
  Mn  Mn21  1  0.332214  0.835012  0.498039  1
  Mn  Mn22  1  0.832207  0.834436  0.998650  1
  Mn  Mn23  1  0.000016  0.500000  0.500018  1
  Mn  Mn24  1  0.583119  0.835043  0.498015  1
  Mn  Mn25  1  0.916928  0.667363  0.499531  1
  Mn  Mn26  1  0.833500  0.831776  0.501950  1
  O  O27  1  0.103042  0.058460  0.264732  1
  O  O28  1  0.010148  0.244789  0.265613  1
  O  O29  1  0.343215  0.048564  0.294847  1
  O  O30  1  0.229427  0.244953  0.265347  1
  O  O31  1  0.103789  0.087627  0.735483  1
  O  O32  1  0.176817  0.381287  0.295615  1
  O  O33  1  0.603784  0.058600  0.264498  1
  O  O34  1  0.066178  0.580051  0.259624  1
  O  O35  1  0.323177  0.088728  0.734378  1
  O  O36  1  0.510534  0.243288  0.267560  1
  O  O37  1  0.010544  0.713947  0.296903  1
  O  O38  1  0.842310  0.052278  0.290067  1
  O  O39  1  0.433831  0.391764  0.268536  1
  O  O40  1  0.229847  0.275208  0.735561  1
  O  O41  1  0.729826  0.243586  0.267186  1
  O  O42  1  0.156791  0.421793  0.734797  1
  O  O43  1  0.342311  0.578422  0.263929  1
  O  O44  1  0.603048  0.089063  0.734143  1
  O  O45  1  0.676685  0.381315  0.295659  1
  O  O46  1  0.270577  0.724415  0.265292  1
  O  O47  1  0.489862  0.285879  0.703729  1
  O  O48  1  0.062749  0.608877  0.734760  1
  O  O49  1  0.823302  0.088636  0.734404  1
  O  O50  1  0.562744  0.578371  0.265266  1
  O  O51  1  0.176699  0.911361  0.265599  1
  O  O52  1  0.437259  0.421624  0.734735  1
  O  O53  1  0.510148  0.714106  0.296287  1
  O  O54  1  0.937253  0.391110  0.265259  1
  O  O55  1  0.729421  0.275590  0.734702  1
  O  O56  1  0.323308  0.618689  0.704345  1
  O  O57  1  0.657690  0.421572  0.736077  1
  O  O58  1  0.396954  0.910921  0.265886  1
  O  O59  1  0.843222  0.578201  0.265205  1
  O  O60  1  0.270137  0.756446  0.732789  1
  O  O61  1  0.770148  0.724798  0.264430  1
  O  O62  1  0.157693  0.947708  0.709949  1
  O  O63  1  0.989465  0.286018  0.703135  1
  O  O64  1  0.566177  0.608257  0.731419  1
  O  O65  1  0.489468  0.756749  0.732405  1
  O  O66  1  0.676819  0.911261  0.265644  1
  O  O67  1  0.933831  0.419948  0.740371  1
  O  O68  1  0.823179  0.618708  0.704398  1
  O  O69  1  0.396214  0.941388  0.735519  1
  O  O70  1  0.896216  0.912372  0.264522  1
  O  O71  1  0.770582  0.755020  0.734682  1
  O  O72  1  0.656779  0.951444  0.705150  1
  O  O73  1  0.989865  0.755192  0.734406  1
  O  O74  1  0.896960  0.941537  0.735272  1
