# generated using pymatgen
data_Li7Mn5O12
_symmetry_space_group_name_H-M   'P 1'
_cell_length_a   5.12148311
_cell_length_b   5.12355988
_cell_length_c   9.81540565
_cell_angle_alpha   94.74877491
_cell_angle_beta   85.30320563
_cell_angle_gamma   59.75326058
_symmetry_Int_Tables_number   1
_chemical_formula_structural   Li7Mn5O12
_chemical_formula_sum   'Li7 Mn5 O12'
_cell_volume   219.43520026
_cell_formula_units_Z   1
loop_
 _symmetry_equiv_pos_site_id
 _symmetry_equiv_pos_as_xyz
  1  'x, y, z'
loop_
 _atom_site_type_symbol
 _atom_site_label
 _atom_site_symmetry_multiplicity
 _atom_site_fract_x
 _atom_site_fract_y
 _atom_site_fract_z
 _atom_site_occupancy
  Li  Li1  1  0.322787  0.864092  0.510289  1
  Li  Li2  1  0.005469  0.498713  0.502770  1
  Li  Li3  1  0.182939  0.641764  0.992153  1
  Li  Li4  1  0.253179  0.253175  0.749997  1
  Li  Li5  1  0.641722  0.182899  0.507831  1
  Li  Li6  1  0.498749  0.005383  0.997239  1
  Li  Li7  1  0.864119  0.322809  0.989726  1
  Mn  Mn8  1  0.087375  0.087386  0.250039  1
  Mn  Mn9  1  0.748285  0.748381  0.250004  1
  Mn  Mn10  1  0.409785  0.409718  0.249946  1
  Mn  Mn11  1  0.586247  0.586225  0.750001  1
  Mn  Mn12  1  0.918873  0.918898  0.750001  1
  O  O13  1  0.052090  0.763053  0.358069  1
  O  O14  1  0.216531  0.925285  0.861238  1
  O  O15  1  0.444379  0.734121  0.141545  1
  O  O16  1  0.132665  0.365606  0.119871  1
  O  O17  1  0.288525  0.579838  0.638620  1
  O  O18  1  0.646763  0.858150  0.639616  1
  O  O19  1  0.365339  0.132277  0.380213  1
  O  O20  1  0.733676  0.444278  0.358367  1
  O  O21  1  0.858268  0.646819  0.860386  1
  O  O22  1  0.579829  0.288613  0.861353  1
  O  O23  1  0.763323  0.052171  0.141925  1
  O  O24  1  0.925242  0.216459  0.638793  1
