# generated using pymatgen
data_Li6Mn5O12
_symmetry_space_group_name_H-M   'P 1'
_cell_length_a   5.07254811
_cell_length_b   8.83905301
_cell_length_c   9.84306970
_cell_angle_alpha   97.62077935
_cell_angle_beta   85.27890938
_cell_angle_gamma   91.28553569
_symmetry_Int_Tables_number   1
_chemical_formula_structural   Li6Mn5O12
_chemical_formula_sum   'Li12 Mn10 O24'
_cell_volume   435.91719259
_cell_formula_units_Z   2
loop_
 _symmetry_equiv_pos_site_id
 _symmetry_equiv_pos_as_xyz
  1  'x, y, z'
loop_
 _atom_site_type_symbol
 _atom_site_label
 _atom_site_symmetry_multiplicity
 _atom_site_fract_x
 _atom_site_fract_y
 _atom_site_fract_z
 _atom_site_occupancy
  Li  Li1  1  0.023929  0.173140  0.483554  1
  Li  Li2  1  0.224224  0.602138  0.018543  1
  Li  Li3  1  0.264111  0.918174  0.012392  1
  Li  Li4  1  0.259689  0.246410  0.021071  1
  Li  Li5  1  0.381880  0.130321  0.257909  1
  Li  Li6  1  0.511378  0.012524  0.483610  1
  Li  Li7  1  0.510213  0.655645  0.488243  1
  Li  Li8  1  0.736370  0.085796  0.013484  1
  Li  Li9  1  0.747487  0.435106  0.016090  1
  Li  Li10  1  0.874221  0.628142  0.241250  1
  Li  Li11  1  0.987312  0.496500  0.485739  1
  Li  Li12  1  0.003552  0.815391  0.476566  1
  Mn  Mn13  1  0.126154  0.368983  0.745903  1
  Mn  Mn14  1  0.123411  0.038327  0.750135  1
  Mn  Mn15  1  0.120087  0.708160  0.751315  1
  Mn  Mn16  1  0.614836  0.874454  0.753026  1
  Mn  Mn17  1  0.626459  0.542357  0.748817  1
  Mn  Mn18  1  0.622597  0.204381  0.749573  1
  Mn  Mn19  1  0.375024  0.460203  0.253228  1
  Mn  Mn20  1  0.384859  0.793555  0.248811  1
  Mn  Mn21  1  0.870598  0.294493  0.251307  1
  Mn  Mn22  1  0.883031  0.958854  0.246869  1
  O  O23  1  0.035358  0.111310  0.137345  1
  O  O24  1  0.071433  0.430108  0.136934  1
  O  O25  1  0.086629  0.789368  0.141831  1
  O  O26  1  0.165724  0.324354  0.360948  1
  O  O27  1  0.188038  0.963922  0.361406  1
  O  O28  1  0.220075  0.642901  0.362234  1
  O  O29  1  0.308550  0.847826  0.639351  1
  O  O30  1  0.315422  0.172156  0.639327  1
  O  O31  1  0.308512  0.539205  0.646015  1
  O  O32  1  0.528565  0.606333  0.141007  1
  O  O33  1  0.438379  0.077442  0.874066  1
  O  O34  1  0.442517  0.386782  0.850971  1
  O  O35  1  0.409370  0.739702  0.864203  1
  O  O36  1  0.565010  0.290216  0.141410  1
  O  O37  1  0.574672  0.935383  0.142782  1
  O  O38  1  0.684079  0.468083  0.356538  1
  O  O39  1  0.688350  0.822107  0.361275  1
  O  O40  1  0.728562  0.136601  0.357155  1
  O  O41  1  0.830556  0.337469  0.638070  1
  O  O42  1  0.779785  0.024725  0.642372  1
  O  O43  1  0.825166  0.676964  0.632320  1
  O  O44  1  0.935012  0.563970  0.858815  1
  O  O45  1  0.942458  0.890467  0.851932  1
  O  O46  1  0.916838  0.224604  0.862163  1
