# generated using pymatgen
data_KAg2
_symmetry_space_group_name_H-M   'P 1'
_cell_length_a   5.91216028
_cell_length_b   5.91216029
_cell_length_c   10.06626001
_cell_angle_alpha   90.00000000
_cell_angle_beta   90.00000000
_cell_angle_gamma   119.99999997
_symmetry_Int_Tables_number   1
_chemical_formula_structural   KAg2
_chemical_formula_sum   'K4 Ag8'
_cell_volume   304.71313469
_cell_formula_units_Z   4
loop_
 _symmetry_equiv_pos_site_id
 _symmetry_equiv_pos_as_xyz
  1  'x, y, z'
loop_
 _atom_site_type_symbol
 _atom_site_label
 _atom_site_symmetry_multiplicity
 _atom_site_fract_x
 _atom_site_fract_y
 _atom_site_fract_z
 _atom_site_occupancy
  K  K1  1  0.333333  0.666667  0.061356  1
  K  K2  1  0.666667  0.333333  0.561356  1
  K  K3  1  0.666667  0.333333  0.938644  1
  K  K4  1  0.333333  0.666667  0.438644  1
  Ag  Ag5  1  0.000000  0.000000  0.000000  1
  Ag  Ag6  1  0.000000  0.000000  0.500000  1
  Ag  Ag7  1  0.834883  0.669766  0.250000  1
  Ag  Ag8  1  0.165117  0.834883  0.750000  1
  Ag  Ag9  1  0.669766  0.834883  0.750000  1
  Ag  Ag10  1  0.330234  0.165117  0.250000  1
  Ag  Ag11  1  0.834883  0.165117  0.250000  1
  Ag  Ag12  1  0.165117  0.330234  0.750000  1
