# generated using pymatgen
data_Li2BiO3
_symmetry_space_group_name_H-M   'P 1'
_cell_length_a   5.73682934
_cell_length_b   5.82140371
_cell_length_c   5.60312451
_cell_angle_alpha   90.00000000
_cell_angle_beta   90.00000000
_cell_angle_gamma   60.47944131
_symmetry_Int_Tables_number   1
_chemical_formula_structural   Li2BiO3
_chemical_formula_sum   'Li4 Bi2 O6'
_cell_volume   162.83152703
_cell_formula_units_Z   2
loop_
 _symmetry_equiv_pos_site_id
 _symmetry_equiv_pos_as_xyz
  1  'x, y, z'
loop_
 _atom_site_type_symbol
 _atom_site_label
 _atom_site_symmetry_multiplicity
 _atom_site_fract_x
 _atom_site_fract_y
 _atom_site_fract_z
 _atom_site_occupancy
  Li  Li1  1  0.506874  0.640501  0.028733  1
  Li  Li2  1  0.852626  0.640501  0.528733  1
  Li  Li3  1  0.493126  0.359499  0.528733  1
  Li  Li4  1  0.147374  0.359499  0.028733  1
  Bi  Bi5  1  0.790725  0.000000  0.033116  1
  Bi  Bi6  1  0.209275  0.000000  0.533116  1
  O  O7  1  0.525055  0.657824  0.387177  1
  O  O8  1  0.817120  0.657824  0.887177  1
  O  O9  1  0.474945  0.342176  0.887177  1
  O  O10  1  0.182880  0.342176  0.387177  1
  O  O11  1  0.844549  0.000000  0.432065  1
  O  O12  1  0.155451  0.000000  0.932065  1
