# generated using pymatgen
data_NaN3
_symmetry_space_group_name_H-M   'P 1'
_cell_length_a   4.62095454
_cell_length_b   4.62095454
_cell_length_c   6.62626102
_cell_angle_alpha   52.54929624
_cell_angle_beta   52.54929624
_cell_angle_gamma   75.96204014
_symmetry_Int_Tables_number   1
_chemical_formula_structural   NaN3
_chemical_formula_sum   'Na1 N3'
_cell_volume   87.33902343
_cell_formula_units_Z   1
loop_
 _symmetry_equiv_pos_site_id
 _symmetry_equiv_pos_as_xyz
  1  'x, y, z'
loop_
 _atom_site_type_symbol
 _atom_site_label
 _atom_site_symmetry_multiplicity
 _atom_site_fract_x
 _atom_site_fract_y
 _atom_site_fract_z
 _atom_site_occupancy
  Na  Na1  1  0.000000  0.000000  -0.000000  1
  N  N2  1  0.500000  0.500000  0.500000  1
  N  N3  1  0.910955  0.910955  0.632514  1
  N  N4  1  0.089045  0.089045  0.367486  1
