# generated using pymatgen
data_LiMnO2
_symmetry_space_group_name_H-M   'P 1'
_cell_length_a   7.31584438
_cell_length_b   5.86962685
_cell_length_c   5.25135804
_cell_angle_alpha   90.71548347
_cell_angle_beta   86.55508771
_cell_angle_gamma   88.98575632
_symmetry_Int_Tables_number   1
_chemical_formula_structural   LiMnO2
_chemical_formula_sum   'Li6 Mn6 O12'
_cell_volume   225.03653542
_cell_formula_units_Z   6
loop_
 _symmetry_equiv_pos_site_id
 _symmetry_equiv_pos_as_xyz
  1  'x, y, z'
loop_
 _atom_site_type_symbol
 _atom_site_label
 _atom_site_symmetry_multiplicity
 _atom_site_fract_x
 _atom_site_fract_y
 _atom_site_fract_z
 _atom_site_occupancy
  Li  Li1  1  0.987928  0.125894  0.239759  1
  Li  Li2  1  0.345405  0.874106  0.426908  1
  Li  Li3  1  0.993418  0.370107  0.738714  1
  Li  Li4  1  0.658561  0.880436  0.070542  1
  Li  Li5  1  0.339916  0.629893  0.927952  1
  Li  Li6  1  0.674772  0.119564  0.596125  1
  Mn  Mn7  1  0.001871  0.623181  0.244383  1
  Mn  Mn8  1  0.331463  0.376819  0.422284  1
  Mn  Mn9  1  0.999432  0.884369  0.749192  1
  Mn  Mn10  1  0.671748  0.365726  0.079720  1
  Mn  Mn11  1  0.333901  0.115630  0.917475  1
  Mn  Mn12  1  0.661586  0.634274  0.586947  1
  O  O13  1  0.176951  0.371368  0.114021  1
  O  O14  1  0.146067  0.860559  0.064813  1
  O  O15  1  0.156383  0.628632  0.552646  1
  O  O16  1  0.187266  0.139441  0.601853  1
  O  O17  1  0.493389  0.137404  0.220700  1
  O  O18  1  0.499709  0.599418  0.252603  1
  O  O19  1  0.497237  0.386776  0.723071  1
  O  O20  1  0.503131  0.869034  0.746442  1
  O  O21  1  0.833625  0.400582  0.414064  1
  O  O22  1  0.839944  0.862596  0.445967  1
  O  O23  1  0.830202  0.130966  0.920225  1
  O  O24  1  0.836096  0.613224  0.943596  1
