# generated using pymatgen
data_NaGa
_symmetry_space_group_name_H-M   'P 1'
_cell_length_a   4.55070459
_cell_length_b   4.55070459
_cell_length_c   4.89775108
_cell_angle_alpha   90.00000000
_cell_angle_beta   90.00000000
_cell_angle_gamma   83.43369811
_symmetry_Int_Tables_number   1
_chemical_formula_structural   NaGa
_chemical_formula_sum   'Na2 Ga2'
_cell_volume   100.76175506
_cell_formula_units_Z   2
loop_
 _symmetry_equiv_pos_site_id
 _symmetry_equiv_pos_as_xyz
  1  'x, y, z'
loop_
 _atom_site_type_symbol
 _atom_site_label
 _atom_site_symmetry_multiplicity
 _atom_site_fract_x
 _atom_site_fract_y
 _atom_site_fract_z
 _atom_site_occupancy
  Na  Na1  1  0.365392  0.365392  0.250000  1
  Na  Na2  1  0.634608  0.634608  0.750000  1
  Ga  Ga3  1  0.913443  0.913443  0.250000  1
  Ga  Ga4  1  0.086557  0.086557  0.750000  1
