# generated using pymatgen
data_NaMg15
_symmetry_space_group_name_H-M   'P 1'
_cell_length_a   6.44395084
_cell_length_b   6.44395030
_cell_length_c   10.39245790
_cell_angle_alpha   90.00000000
_cell_angle_beta   90.00000000
_cell_angle_gamma   120.00000275
_symmetry_Int_Tables_number   1
_chemical_formula_structural   NaMg15
_chemical_formula_sum   'Na1 Mg15'
_cell_volume   373.72598449
_cell_formula_units_Z   1
loop_
 _symmetry_equiv_pos_site_id
 _symmetry_equiv_pos_as_xyz
  1  'x, y, z'
loop_
 _atom_site_type_symbol
 _atom_site_label
 _atom_site_symmetry_multiplicity
 _atom_site_fract_x
 _atom_site_fract_y
 _atom_site_fract_z
 _atom_site_occupancy
  Na  Na1  1  0.166667  0.333333  0.125000  1
  Mg  Mg2  1  0.166667  0.333333  0.625000  1
  Mg  Mg3  1  0.167637  0.833818  0.125000  1
  Mg  Mg4  1  0.166609  0.833304  0.625000  1
  Mg  Mg5  1  0.666182  0.332363  0.125000  1
  Mg  Mg6  1  0.666696  0.333391  0.625000  1
  Mg  Mg7  1  0.666182  0.833818  0.125000  1
  Mg  Mg8  1  0.666696  0.833304  0.625000  1
  Mg  Mg9  1  0.334002  0.165998  0.377574  1
  Mg  Mg10  1  0.334002  0.165998  0.872426  1
  Mg  Mg11  1  0.334002  0.668006  0.377574  1
  Mg  Mg12  1  0.334002  0.668006  0.872426  1
  Mg  Mg13  1  0.831994  0.165998  0.377574  1
  Mg  Mg14  1  0.831994  0.165998  0.872426  1
  Mg  Mg15  1  0.833333  0.666667  0.374770  1
  Mg  Mg16  1  0.833333  0.666667  0.875230  1
