# generated using pymatgen
data_Li9Mn15O32
_symmetry_space_group_name_H-M   'P 1'
_cell_length_a   8.37382879
_cell_length_b   10.19028472
_cell_length_c   8.35202767
_cell_angle_alpha   66.11969929
_cell_angle_beta   89.85478176
_cell_angle_gamma   114.15253948
_symmetry_Int_Tables_number   1
_chemical_formula_structural   Li9Mn15O32
_chemical_formula_sum   'Li9 Mn15 O32'
_cell_volume   582.42778703
_cell_formula_units_Z   1
loop_
 _symmetry_equiv_pos_site_id
 _symmetry_equiv_pos_as_xyz
  1  'x, y, z'
loop_
 _atom_site_type_symbol
 _atom_site_label
 _atom_site_symmetry_multiplicity
 _atom_site_fract_x
 _atom_site_fract_y
 _atom_site_fract_z
 _atom_site_occupancy
  Li  Li1  1  0.998702  0.998913  0.500984  1
  Li  Li2  1  0.433982  0.119181  0.318883  1
  Li  Li3  1  0.939278  0.119179  0.812568  1
  Li  Li4  1  0.306582  0.373228  0.438145  1
  Li  Li5  1  0.808183  0.379186  0.931037  1
  Li  Li6  1  0.191139  0.619860  0.071682  1
  Li  Li7  1  0.691512  0.626927  0.565277  1
  Li  Li8  1  0.567659  0.879225  0.680996  1
  Li  Li9  1  0.059426  0.878717  0.188702  1
  Mn  Mn10  1  0.241420  0.992830  0.753980  1
  Mn  Mn11  1  0.754505  0.005941  0.251549  1
  Mn  Mn12  1  0.500454  0.999792  0.001806  1
  Mn  Mn13  1  0.366745  0.249021  0.867495  1
  Mn  Mn14  1  0.619474  0.251272  0.620778  1
  Mn  Mn15  1  0.121373  0.251016  0.124637  1
  Mn  Mn16  1  0.880946  0.252801  0.371098  1
  Mn  Mn17  1  0.000129  0.498900  0.500268  1
  Mn  Mn18  1  0.750289  0.500288  0.251095  1
  Mn  Mn19  1  0.248890  0.498387  0.749340  1
  Mn  Mn20  1  0.502107  0.500235  0.997439  1
  Mn  Mn21  1  0.385329  0.749275  0.381902  1
  Mn  Mn22  1  0.876323  0.746019  0.874225  1
  Mn  Mn23  1  0.122260  0.747733  0.629380  1
  Mn  Mn24  1  0.628808  0.747224  0.134255  1
  O  O25  1  0.488237  0.012893  0.758784  1
  O  O26  1  0.269169  0.014161  0.981243  1
  O  O27  1  0.763843  0.028412  0.466821  1
  O  O28  1  0.991014  0.025674  0.236347  1
  O  O29  1  0.345776  0.222229  0.653009  1
  O  O30  1  0.108323  0.257360  0.346136  1
  O  O31  1  0.599365  0.259902  0.847912  1
  O  O32  1  0.884658  0.244295  0.139349  1
  O  O33  1  0.140819  0.264198  0.881281  1
  O  O34  1  0.363606  0.263626  0.097894  1
  O  O35  1  0.649612  0.266198  0.377254  1
  O  O36  1  0.889634  0.267964  0.593459  1
  O  O37  1  0.978663  0.490216  0.266981  1
  O  O38  1  0.466453  0.479723  0.750887  1
  O  O39  1  0.753911  0.487855  0.488036  1
  O  O40  1  0.255636  0.488879  0.985593  1
  O  O41  1  0.246517  0.512752  0.512886  1
  O  O42  1  0.022119  0.509286  0.733808  1
  O  O43  1  0.745456  0.509119  0.015063  1
  O  O44  1  0.529397  0.511170  0.249434  1
  O  O45  1  0.639292  0.730894  0.880411  1
  O  O46  1  0.123368  0.732766  0.405158  1
  O  O47  1  0.352342  0.732164  0.624355  1
  O  O48  1  0.858147  0.733253  0.118142  1
  O  O49  1  0.394035  0.739677  0.158809  1
  O  O50  1  0.117731  0.756563  0.860904  1
  O  O51  1  0.895367  0.741672  0.651202  1
  O  O52  1  0.638552  0.780584  0.373830  1
  O  O53  1  0.237902  0.974046  0.536193  1
  O  O54  1  0.006033  0.971523  0.765771  1
  O  O55  1  0.729530  0.987177  0.023358  1
  O  O56  1  0.511238  0.990875  0.240912  1
