# generated using pymatgen
data_NaB15
_symmetry_space_group_name_H-M   'P 1'
_cell_length_a   5.84737691
_cell_length_b   7.26529105
_cell_length_c   7.26529105
_cell_angle_alpha   70.79258513
_cell_angle_beta   66.27053414
_cell_angle_gamma   66.27053410
_symmetry_Int_Tables_number   1
_chemical_formula_structural   NaB15
_chemical_formula_sum   'Na2 B30'
_cell_volume   253.47679862
_cell_formula_units_Z   2
loop_
 _symmetry_equiv_pos_site_id
 _symmetry_equiv_pos_as_xyz
  1  'x, y, z'
loop_
 _atom_site_type_symbol
 _atom_site_label
 _atom_site_symmetry_multiplicity
 _atom_site_fract_x
 _atom_site_fract_y
 _atom_site_fract_z
 _atom_site_occupancy
  B  B1  1  0.250000  0.496996  0.003004  1
  B  B2  1  0.750000  0.503004  0.996996  1
  B  B3  1  0.101223  0.745777  0.051776  1
  B  B4  1  0.898777  0.254223  0.948224  1
  B  B5  1  0.398777  0.448224  0.754223  1
  B  B6  1  0.601223  0.551776  0.245777  1
  B  B7  1  0.164804  0.881490  0.788903  1
  B  B8  1  0.835196  0.118510  0.211097  1
  B  B9  1  0.335196  0.711097  0.618510  1
  B  B10  1  0.664804  0.288903  0.381490  1
  B  B11  1  0.145289  0.460890  0.248531  1
  B  B12  1  0.854711  0.539110  0.751469  1
  B  B13  1  0.354710  0.251469  0.039110  1
  B  B14  1  0.645289  0.748531  0.960890  1
  B  B15  1  0.208550  0.117510  0.786731  1
  B  B16  1  0.112791  0.882490  0.213269  1
  B  B17  1  0.291450  0.713269  0.382490  1
  B  B18  1  0.387209  0.286731  0.617510  1
  B  B19  1  0.791450  0.882490  0.213269  1
  B  B20  1  0.887209  0.117510  0.786731  1
  B  B21  1  0.708550  0.286731  0.617510  1
  B  B22  1  0.612791  0.713269  0.382490  1
  B  B23  1  0.328704  0.882243  0.955647  1
  B  B24  1  0.166593  0.117757  0.044353  1
  B  B25  1  0.171296  0.544353  0.617757  1
  B  B26  1  0.333407  0.455647  0.382243  1
  B  B27  1  0.671296  0.117757  0.044353  1
  B  B28  1  0.833407  0.882243  0.955647  1
  B  B29  1  0.828704  0.455647  0.382243  1
  B  B30  1  0.666593  0.544353  0.617757  1
  Na  Na31  1  0.250000  0.088782  0.411218  1
  Na  Na32  1  0.750000  0.911218  0.588782  1
