# generated using pymatgen
data_Li2Mn3O7
_symmetry_space_group_name_H-M   'P 1'
_cell_length_a   6.48037817
_cell_length_b   6.11152941
_cell_length_c   7.65529413
_cell_angle_alpha   101.82653644
_cell_angle_beta   113.38289180
_cell_angle_gamma   105.41302404
_symmetry_Int_Tables_number   1
_chemical_formula_structural   Li2Mn3O7
_chemical_formula_sum   'Li4 Mn6 O14'
_cell_volume   251.22835559
_cell_formula_units_Z   2
loop_
 _symmetry_equiv_pos_site_id
 _symmetry_equiv_pos_as_xyz
  1  'x, y, z'
loop_
 _atom_site_type_symbol
 _atom_site_label
 _atom_site_symmetry_multiplicity
 _atom_site_fract_x
 _atom_site_fract_y
 _atom_site_fract_z
 _atom_site_occupancy
  Li  Li1  1  0.314104  0.680896  0.469318  1
  Li  Li2  1  0.352662  0.850302  0.084177  1
  Li  Li3  1  0.647338  0.149698  0.915823  1
  Li  Li4  1  0.685896  0.319104  0.530682  1
  Mn  Mn5  1  0.218592  0.221609  0.640789  1
  Mn  Mn6  1  0.077377  0.079473  0.221194  1
  Mn  Mn7  1  0.645144  0.639609  0.922425  1
  Mn  Mn8  1  0.354856  0.360391  0.077575  1
  Mn  Mn9  1  0.922623  0.920527  0.778806  1
  Mn  Mn10  1  0.781408  0.778391  0.359211  1
  O  O11  1  0.130964  0.925058  0.424702  1
  O  O12  1  0.307051  0.510480  0.863204  1
  O  O13  1  0.137708  0.344441  0.431024  1
  O  O14  1  0.014557  0.219942  0.008881  1
  O  O15  1  0.271450  0.071501  0.855106  1
  O  O16  1  0.603288  0.816269  0.743760  1
  O  O17  1  0.443865  0.661384  0.272097  1
  O  O18  1  0.556135  0.338616  0.727903  1
  O  O19  1  0.396712  0.183731  0.256240  1
  O  O20  1  0.728550  0.928499  0.144894  1
  O  O21  1  0.985443  0.780058  0.991119  1
  O  O22  1  0.862292  0.655559  0.568976  1
  O  O23  1  0.692949  0.489520  0.136796  1
  O  O24  1  0.869036  0.074942  0.575298  1
