# generated using pymatgen
data_Li13Mn2O12
_symmetry_space_group_name_H-M   'P 1'
_cell_length_a   5.64186291
_cell_length_b   5.68946288
_cell_length_c   9.68090794
_cell_angle_alpha   107.44182458
_cell_angle_beta   89.16678509
_cell_angle_gamma   60.40300311
_symmetry_Int_Tables_number   1
_chemical_formula_structural   Li13Mn2O12
_chemical_formula_sum   'Li13 Mn2 O12'
_cell_volume   252.78003026
_cell_formula_units_Z   1
loop_
 _symmetry_equiv_pos_site_id
 _symmetry_equiv_pos_as_xyz
  1  'x, y, z'
loop_
 _atom_site_type_symbol
 _atom_site_label
 _atom_site_symmetry_multiplicity
 _atom_site_fract_x
 _atom_site_fract_y
 _atom_site_fract_z
 _atom_site_occupancy
  Li  Li1  1  0.008004  0.353370  0.873342  1
  Li  Li2  1  0.999204  0.690662  0.745012  1
  Li  Li3  1  0.013300  0.739783  0.463863  1
  Li  Li4  1  0.488472  0.975030  0.117523  1
  Li  Li5  1  0.459533  0.375385  0.039149  1
  Li  Li6  1  0.535949  0.324418  0.753005  1
  Li  Li7  1  0.556095  0.303223  0.365079  1
  Li  Li8  1  0.452161  0.663815  0.622552  1
  Li  Li9  1  0.460376  0.694877  0.261121  1
  Li  Li10  1  0.509085  0.927592  0.861343  1
  Li  Li11  1  0.979032  0.268167  0.541253  1
  Li  Li12  1  0.000158  0.324522  0.256285  1
  Li  Li13  1  0.976316  0.674411  0.135626  1
  Mn  Mn14  1  0.011540  0.998799  0.000470  1
  Mn  Mn15  1  0.495337  0.003307  0.504781  1
  O  O16  1  0.187667  0.239994  0.041053  1
  O  O17  1  0.233538  0.251672  0.685901  1
  O  O18  1  0.250950  0.239850  0.395612  1
  O  O19  1  0.250459  0.791614  0.113940  1
  O  O20  1  0.285320  0.753494  0.820101  1
  O  O21  1  0.325933  0.774925  0.460236  1
  O  O22  1  0.666494  0.230296  0.544143  1
  O  O23  1  0.713056  0.257490  0.174712  1
  O  O24  1  0.772972  0.198101  0.883508  1
  O  O25  1  0.738465  0.763276  0.610646  1
  O  O26  1  0.759190  0.763059  0.318253  1
  O  O27  1  0.833362  0.771676  0.960534  1
