# generated using pymatgen
data_NaS2
_symmetry_space_group_name_H-M   'P 1'
_cell_length_a   9.10073106
_cell_length_b   9.10073106
_cell_length_c   9.10073106
_cell_angle_alpha   97.72555143
_cell_angle_beta   115.64449366
_cell_angle_gamma   115.64449364
_symmetry_Int_Tables_number   1
_chemical_formula_structural   NaS2
_chemical_formula_sum   'Na8 S16'
_cell_volume   562.52573443
_cell_formula_units_Z   8
loop_
 _symmetry_equiv_pos_site_id
 _symmetry_equiv_pos_as_xyz
  1  'x, y, z'
loop_
 _atom_site_type_symbol
 _atom_site_label
 _atom_site_symmetry_multiplicity
 _atom_site_fract_x
 _atom_site_fract_y
 _atom_site_fract_z
 _atom_site_occupancy
  Na  Na1  1  0.000000  0.170162  0.170162  1
  Na  Na2  1  0.000000  0.829838  0.829838  1
  Na  Na3  1  0.500000  0.579838  0.079838  1
  Na  Na4  1  0.500000  0.920162  0.420162  1
  Na  Na5  1  0.523185  0.375000  0.398185  1
  Na  Na6  1  0.976815  0.601815  0.125000  1
  Na  Na7  1  0.023185  0.148185  0.625000  1
  Na  Na8  1  0.476815  0.875000  0.851815  1
  S  S9  1  0.284345  0.547025  0.328456  1
  S  S10  1  0.218569  0.671544  0.955889  1
  S  S11  1  0.781431  0.737320  0.452975  1
  S  S12  1  0.718569  0.705889  0.921544  1
  S  S13  1  0.281431  0.202975  0.987320  1
  S  S14  1  0.715655  0.044111  0.262680  1
  S  S15  1  0.784345  0.078456  0.797025  1
  S  S16  1  0.215655  0.012680  0.294111  1
  S  S17  1  0.264886  0.514928  0.543798  1
  S  S18  1  0.971129  0.456202  0.721088  1
  S  S19  1  0.028871  0.749958  0.485072  1
  S  S20  1  0.471129  0.471088  0.706202  1
  S  S21  1  0.528871  0.235072  0.999958  1
  S  S22  1  0.735114  0.278912  0.250042  1
  S  S23  1  0.764886  0.293798  0.764928  1
  S  S24  1  0.235114  0.000042  0.528912  1
