# generated using pymatgen
data_Li8BiO6
_symmetry_space_group_name_H-M   'P 1'
_cell_length_a   5.83886760
_cell_length_b   5.83884795
_cell_length_c   11.01716422
_cell_angle_alpha   90.00037166
_cell_angle_beta   89.99972000
_cell_angle_gamma   120.00098745
_symmetry_Int_Tables_number   1
_chemical_formula_structural   Li8BiO6
_chemical_formula_sum   'Li16 Bi2 O12'
_cell_volume   325.27592962
_cell_formula_units_Z   2
loop_
 _symmetry_equiv_pos_site_id
 _symmetry_equiv_pos_as_xyz
  1  'x, y, z'
loop_
 _atom_site_type_symbol
 _atom_site_label
 _atom_site_symmetry_multiplicity
 _atom_site_fract_x
 _atom_site_fract_y
 _atom_site_fract_z
 _atom_site_occupancy
  Li  Li1  1  0.999991  0.676079  0.767768  1
  Li  Li2  1  0.000009  0.588195  0.127848  1
  Li  Li3  1  0.999985  0.411871  0.627846  1
  Li  Li4  1  0.000006  0.323895  0.267749  1
  Li  Li5  1  0.333339  0.666689  0.403484  1
  Li  Li6  1  0.333320  0.666651  0.903490  1
  Li  Li7  1  0.323891  0.323895  0.767767  1
  Li  Li8  1  0.411823  0.411834  0.127840  1
  Li  Li9  1  0.588133  0.588135  0.627852  1
  Li  Li10  1  0.323887  0.000018  0.267748  1
  Li  Li11  1  0.676123  0.676132  0.267747  1
  Li  Li12  1  0.411857  0.999987  0.627846  1
  Li  Li13  1  0.666650  0.333322  0.903490  1
  Li  Li14  1  0.666666  0.333352  0.403483  1
  Li  Li15  1  0.588167  0.000020  0.127842  1
  Li  Li16  1  0.676075  0.999992  0.767766  1
  Bi  Bi17  1  0.000003  0.000006  0.989589  1
  Bi  Bi18  1  -0.000012  -0.000001  0.489855  1
  O  O19  1  0.999989  0.642471  0.949453  1
  O  O20  1  0.999999  0.357572  0.449429  1
  O  O21  1  0.333341  0.666679  0.213795  1
  O  O22  1  0.000007  0.999968  0.186306  1
  O  O23  1  0.999972  0.999978  0.686303  1
  O  O24  1  0.333312  0.666648  0.713694  1
  O  O25  1  0.357474  0.357474  0.949459  1
  O  O26  1  0.357546  0.000021  0.449430  1
  O  O27  1  0.642453  0.642470  0.449433  1
  O  O28  1  0.666650  0.333317  0.713695  1
  O  O29  1  0.666673  0.333344  0.213795  1
  O  O30  1  0.642471  0.999986  0.949456  1
