# generated using pymatgen
data_Li5MnO4
_symmetry_space_group_name_H-M   'P 1'
_cell_length_a   12.80422241
_cell_length_b   12.80422241
_cell_length_c   4.70173660
_cell_angle_alpha   90.00000000
_cell_angle_beta   90.00000000
_cell_angle_gamma   90.00000000
_symmetry_Int_Tables_number   1
_chemical_formula_structural   Li5MnO4
_chemical_formula_sum   'Li40 Mn8 O32'
_cell_volume   770.84083646
_cell_formula_units_Z   8
loop_
 _symmetry_equiv_pos_site_id
 _symmetry_equiv_pos_as_xyz
  1  'x, y, z'
loop_
 _atom_site_type_symbol
 _atom_site_label
 _atom_site_symmetry_multiplicity
 _atom_site_fract_x
 _atom_site_fract_y
 _atom_site_fract_z
 _atom_site_occupancy
  Li  Li1  1  0.985995  0.014005  0.250000  1
  Li  Li2  1  0.014005  0.985995  0.750000  1
  Li  Li3  1  0.985995  0.485995  0.250000  1
  Li  Li4  1  0.014005  0.514005  0.750000  1
  Li  Li5  1  0.109760  0.356849  0.806502  1
  Li  Li6  1  0.109760  0.143151  0.806502  1
  Li  Li7  1  0.121918  0.621918  0.250000  1
  Li  Li8  1  0.121918  0.878082  0.250000  1
  Li  Li9  1  0.143151  0.109760  0.306502  1
  Li  Li10  1  0.143151  0.390240  0.306502  1
  Li  Li11  1  0.250000  0.250000  0.357978  1
  Li  Li12  1  0.250000  0.750000  0.750000  1
  Li  Li13  1  0.250000  0.750000  0.250000  1
  Li  Li14  1  0.250000  0.250000  0.857978  1
  Li  Li15  1  0.356849  0.109760  0.306502  1
  Li  Li16  1  0.356849  0.390240  0.306502  1
  Li  Li17  1  0.378082  0.621918  0.250000  1
  Li  Li18  1  0.378082  0.878082  0.250000  1
  Li  Li19  1  0.390240  0.143151  0.806502  1
  Li  Li20  1  0.390240  0.356849  0.806502  1
  Li  Li21  1  0.514005  0.485995  0.250000  1
  Li  Li22  1  0.485995  0.514005  0.750000  1
  Li  Li23  1  0.514005  0.014005  0.250000  1
  Li  Li24  1  0.485995  0.985995  0.750000  1
  Li  Li25  1  0.609760  0.643151  0.193498  1
  Li  Li26  1  0.609760  0.856849  0.193498  1
  Li  Li27  1  0.621918  0.121918  0.750000  1
  Li  Li28  1  0.621918  0.378082  0.750000  1
  Li  Li29  1  0.643151  0.609760  0.693498  1
  Li  Li30  1  0.643151  0.890240  0.693498  1
  Li  Li31  1  0.750000  0.250000  0.250000  1
  Li  Li32  1  0.750000  0.250000  0.750000  1
  Li  Li33  1  0.750000  0.750000  0.142022  1
  Li  Li34  1  0.750000  0.750000  0.642022  1
  Li  Li35  1  0.856849  0.609760  0.693498  1
  Li  Li36  1  0.856849  0.890240  0.693498  1
  Li  Li37  1  0.878082  0.121918  0.750000  1
  Li  Li38  1  0.878082  0.378082  0.750000  1
  Li  Li39  1  0.890240  0.643151  0.193498  1
  Li  Li40  1  0.890240  0.856849  0.193498  1
  Mn  Mn41  1  0.021159  0.750000  0.712613  1
  Mn  Mn42  1  0.250000  0.521159  0.787387  1
  Mn  Mn43  1  0.250000  0.978841  0.787387  1
  Mn  Mn44  1  0.478841  0.750000  0.712613  1
  Mn  Mn45  1  0.521159  0.250000  0.287387  1
  Mn  Mn46  1  0.750000  0.021159  0.212613  1
  Mn  Mn47  1  0.750000  0.478841  0.212613  1
  Mn  Mn48  1  0.978841  0.250000  0.287387  1
  O  O49  1  0.006213  0.125027  0.512217  1
  O  O50  1  0.006213  0.374973  0.512217  1
  O  O51  1  0.125027  0.006213  0.012217  1
  O  O52  1  0.125027  0.493787  0.012217  1
  O  O53  1  0.128405  0.250000  0.095464  1
  O  O54  1  0.126236  0.750000  0.001695  1
  O  O55  1  0.250000  0.128405  0.595464  1
  O  O56  1  0.250000  0.626236  0.498306  1
  O  O57  1  0.250000  0.873764  0.498306  1
  O  O58  1  0.250000  0.371595  0.595464  1
  O  O59  1  0.373764  0.750000  0.001695  1
  O  O60  1  0.371595  0.250000  0.095464  1
  O  O61  1  0.374973  0.493787  0.012217  1
  O  O62  1  0.374973  0.006213  0.012217  1
  O  O63  1  0.493787  0.125027  0.512217  1
  O  O64  1  0.493787  0.374973  0.512217  1
  O  O65  1  0.506213  0.625027  0.487783  1
  O  O66  1  0.506213  0.874973  0.487783  1
  O  O67  1  0.625027  0.993787  0.987783  1
  O  O68  1  0.625027  0.506213  0.987783  1
  O  O69  1  0.628405  0.750000  0.904536  1
  O  O70  1  0.626236  0.250000  0.998305  1
  O  O71  1  0.750000  0.126236  0.501695  1
  O  O72  1  0.750000  0.373764  0.501695  1
  O  O73  1  0.750000  0.628405  0.404536  1
  O  O74  1  0.750000  0.871595  0.404536  1
  O  O75  1  0.873764  0.250000  0.998305  1
  O  O76  1  0.871595  0.750000  0.904536  1
  O  O77  1  0.874973  0.993787  0.987783  1
  O  O78  1  0.874973  0.506213  0.987783  1
  O  O79  1  0.993787  0.625027  0.487783  1
  O  O80  1  0.993787  0.874973  0.487783  1
