# generated using pymatgen
data_Li5MnO4
_symmetry_space_group_name_H-M   'P 1'
_cell_length_a   6.62718463
_cell_length_b   6.62718492
_cell_length_c   4.60609652
_cell_angle_alpha   90.00049549
_cell_angle_beta   89.99881888
_cell_angle_gamma   86.88673238
_symmetry_Int_Tables_number   1
_chemical_formula_structural   Li5MnO4
_chemical_formula_sum   'Li10 Mn2 O8'
_cell_volume   201.99924826
_cell_formula_units_Z   2
loop_
 _symmetry_equiv_pos_site_id
 _symmetry_equiv_pos_as_xyz
  1  'x, y, z'
loop_
 _atom_site_type_symbol
 _atom_site_label
 _atom_site_symmetry_multiplicity
 _atom_site_fract_x
 _atom_site_fract_y
 _atom_site_fract_z
 _atom_site_occupancy
  Li  Li1  1  0.038253  0.955293  0.776257  1
  Li  Li2  1  0.217976  0.277641  0.676107  1
  Li  Li3  1  0.277643  0.217964  0.176097  1
  Li  Li4  1  0.455287  0.538259  0.723751  1
  Li  Li5  1  0.481054  0.981062  0.749982  1
  Li  Li6  1  0.538253  0.455283  0.223747  1
  Li  Li7  1  0.717980  0.777640  0.323907  1
  Li  Li8  1  0.777638  0.717984  0.823900  1
  Li  Li9  1  0.955295  0.038255  0.276259  1
  Li  Li10  1  0.981054  0.481048  0.249975  1
  Mn  Mn11  1  0.253719  0.753717  0.250012  1
  Mn  Mn12  1  0.753741  0.253753  0.749994  1
  O  O13  1  0.006703  0.236870  0.962885  1
  O  O14  1  0.236863  0.006685  0.462879  1
  O  O15  1  0.266589  0.481865  0.392405  1
  O  O16  1  0.481889  0.266603  0.892392  1
  O  O17  1  0.506697  0.736856  0.037138  1
  O  O18  1  0.766602  0.981898  0.607602  1
  O  O19  1  0.736861  0.506712  0.537117  1
  O  O20  1  0.981882  0.766594  0.107594  1
