# generated using pymatgen
data_Na3B20
_symmetry_space_group_name_H-M   'P 1'
_cell_length_a   4.14890821
_cell_length_b   5.68972872
_cell_length_c   9.77146805
_cell_angle_alpha   106.92621324
_cell_angle_beta   90.00000000
_cell_angle_gamma   90.00000000
_symmetry_Int_Tables_number   1
_chemical_formula_structural   Na3B20
_chemical_formula_sum   'Na3 B20'
_cell_volume   220.67448325
_cell_formula_units_Z   1
loop_
 _symmetry_equiv_pos_site_id
 _symmetry_equiv_pos_as_xyz
  1  'x, y, z'
loop_
 _atom_site_type_symbol
 _atom_site_label
 _atom_site_symmetry_multiplicity
 _atom_site_fract_x
 _atom_site_fract_y
 _atom_site_fract_z
 _atom_site_occupancy
  B  B1  1  0.500000  0.255969  0.511938  1
  B  B2  1  0.500000  0.744031  0.488062  1
  B  B3  1  0.500000  0.026406  0.595084  1
  B  B4  1  0.208067  0.825979  0.651958  1
  B  B5  1  0.208067  0.174021  0.348042  1
  B  B6  1  0.791933  0.174021  0.348042  1
  B  B7  1  0.791933  0.825979  0.651958  1
  B  B8  1  0.201652  0.500000  0.000000  1
  B  B9  1  0.798348  0.500000  0.000000  1
  B  B10  1  0.500000  0.608087  0.905759  1
  B  B11  1  0.500000  0.391913  0.094241  1
  B  B12  1  0.500000  0.702328  0.094241  1
  B  B13  1  0.500000  0.297672  0.905759  1
  B  B14  1  0.500000  0.734643  0.769348  1
  B  B15  1  0.500000  0.265357  0.230652  1
  B  B16  1  0.500000  0.965295  0.230652  1
  B  B17  1  0.500000  0.034705  0.769348  1
  B  B18  1  0.500000  0.568678  0.595084  1
  B  B19  1  0.500000  0.431322  0.404916  1
  B  B20  1  0.500000  0.973594  0.404916  1
  Na  Na21  1  0.000000  0.635523  0.271047  1
  Na  Na22  1  0.000000  0.364477  0.728953  1
  Na  Na23  1  0.000000  0.000000  0.000000  1
