# generated using pymatgen
data_Li7Mn11O24
_symmetry_space_group_name_H-M   'P 1'
_cell_length_a   5.93543123
_cell_length_b   5.93543123
_cell_length_c   15.69225436
_cell_angle_alpha   78.78286111
_cell_angle_beta   80.59284634
_cell_angle_gamma   121.78850931
_symmetry_Int_Tables_number   1
_chemical_formula_structural   Li7Mn11O24
_chemical_formula_sum   'Li7 Mn11 O24'
_cell_volume   436.85356916
_cell_formula_units_Z   1
loop_
 _symmetry_equiv_pos_site_id
 _symmetry_equiv_pos_as_xyz
  1  'x, y, z'
loop_
 _atom_site_type_symbol
 _atom_site_label
 _atom_site_symmetry_multiplicity
 _atom_site_fract_x
 _atom_site_fract_y
 _atom_site_fract_z
 _atom_site_occupancy
  Li  Li1  1  0.876929  0.002186  0.310442  1
  Li  Li2  1  0.123071  0.331147  0.022891  1
  Li  Li3  1  0.000000  0.166667  0.166667  1
  Li  Li4  1  0.886596  0.368819  0.622293  1
  Li  Li5  1  0.129256  0.639856  0.365444  1
  Li  Li6  1  0.870744  0.693477  0.967890  1
  Li  Li7  1  0.113404  0.964515  0.711040  1
  Mn  Mn8  1  0.496556  0.989111  0.007167  1
  Mn  Mn9  1  0.500000  0.166667  0.166667  1
  Mn  Mn10  1  0.502455  -0.000069  0.498806  1
  Mn  Mn11  1  0.503444  0.344222  0.326167  1
  Mn  Mn12  1  0.005019  0.995085  0.499792  1
  Mn  Mn13  1  0.000000  0.666667  0.166667  1
  Mn  Mn14  1  0.505329  0.495395  0.499792  1
  Mn  Mn15  1  0.497545  0.333402  0.834527  1
  Mn  Mn16  1  0.500000  0.666667  0.666667  1
  Mn  Mn17  1  0.994981  0.338248  0.833541  1
  Mn  Mn18  1  0.494671  0.837938  0.833541  1
  O  O19  1  0.721657  0.104750  0.081587  1
  O  O20  1  0.257150  0.067440  0.087705  1
  O  O21  1  0.742850  0.265893  0.245628  1
  O  O22  1  0.745438  0.555683  0.099439  1
  O  O23  1  0.278342  0.228583  0.251747  1
  O  O24  1  0.767923  0.718163  0.251747  1
  O  O25  1  0.752239  0.050418  0.575409  1
  O  O26  1  0.705721  0.396168  0.422583  1
  O  O27  1  0.232077  0.615170  0.081587  1
  O  O28  1  0.268342  0.393953  0.418852  1
  O  O29  1  0.254562  0.777650  0.233894  1
  O  O30  1  0.248898  0.104764  0.573170  1
  O  O31  1  0.749765  0.886891  0.431672  1
  O  O32  1  0.755898  0.599963  0.572069  1
  O  O33  1  0.751102  0.228570  0.760164  1
  O  O34  1  0.741334  0.384221  0.910750  1
  O  O35  1  0.298763  0.596942  0.575409  1
  O  O36  1  0.701237  0.736391  0.757924  1
  O  O37  1  0.247761  0.282916  0.757924  1
  O  O38  1  0.258666  0.949113  0.422583  1
  O  O39  1  0.244102  0.733370  0.761264  1
  O  O40  1  0.250235  0.446442  0.901661  1
  O  O41  1  0.731658  0.939380  0.914481  1
  O  O42  1  0.294279  0.937165  0.910750  1
