# generated using pymatgen
data_Li3Mn5O10
_symmetry_space_group_name_H-M   'P 1'
_cell_length_a   5.25159086
_cell_length_b   5.16052892
_cell_length_c   7.75717058
_cell_angle_alpha   110.42397316
_cell_angle_beta   101.54429300
_cell_angle_gamma   100.46356777
_symmetry_Int_Tables_number   1
_chemical_formula_structural   Li3Mn5O10
_chemical_formula_sum   'Li3 Mn5 O10'
_cell_volume   185.64665973
_cell_formula_units_Z   1
loop_
 _symmetry_equiv_pos_site_id
 _symmetry_equiv_pos_as_xyz
  1  'x, y, z'
loop_
 _atom_site_type_symbol
 _atom_site_label
 _atom_site_symmetry_multiplicity
 _atom_site_fract_x
 _atom_site_fract_y
 _atom_site_fract_z
 _atom_site_occupancy
  Li  Li1  1  0.216033  0.921958  0.421813  1
  Li  Li2  1  0.500000  0.500000  0.500000  1
  Li  Li3  1  0.783967  0.078042  0.578187  1
  Mn  Mn4  1  0.110101  0.699697  0.696860  1
  Mn  Mn5  1  0.000000  0.500000  0.000000  1
  Mn  Mn6  1  0.691928  0.876833  0.898333  1
  Mn  Mn7  1  0.308072  0.123167  0.101667  1
  Mn  Mn8  1  0.889899  0.300303  0.303140  1
  O  O9  1  0.066006  0.079989  0.855048  1
  O  O10  1  0.106903  0.311756  0.531903  1
  O  O11  1  0.313497  0.725939  0.949922  1
  O  O12  1  0.206867  0.473878  0.234507  1
  O  O13  1  0.450956  0.856744  0.666966  1
  O  O14  1  0.549044  0.143256  0.333034  1
  O  O15  1  0.793133  0.526122  0.765493  1
  O  O16  1  0.686503  0.274061  0.050078  1
  O  O17  1  0.893097  0.688244  0.468097  1
  O  O18  1  0.933994  0.920011  0.144952  1
