# generated using pymatgen
data_Li2Mn7O12
_symmetry_space_group_name_H-M   'P 1'
_cell_length_a   5.22886435
_cell_length_b   9.01122726
_cell_length_c   10.00842374
_cell_angle_alpha   89.99999813
_cell_angle_beta   101.77945984
_cell_angle_gamma   89.99999766
_symmetry_Int_Tables_number   1
_chemical_formula_structural   Li2Mn7O12
_chemical_formula_sum   'Li4 Mn14 O24'
_cell_volume   461.65055164
_cell_formula_units_Z   2
loop_
 _symmetry_equiv_pos_site_id
 _symmetry_equiv_pos_as_xyz
  1  'x, y, z'
loop_
 _atom_site_type_symbol
 _atom_site_label
 _atom_site_symmetry_multiplicity
 _atom_site_fract_x
 _atom_site_fract_y
 _atom_site_fract_z
 _atom_site_occupancy
  Li  Li1  1  0.757332  0.088889  0.519207  1
  Li  Li2  1  0.502746  0.419209  0.749012  1
  Li  Li3  1  0.742668  0.588889  0.980793  1
  Li  Li4  1  0.997254  0.919209  0.750988  1
  Mn  Mn5  1  0.011295  0.083770  0.264037  1
  Mn  Mn6  1  0.492697  0.076574  0.753474  1
  Mn  Mn7  1  0.008690  0.255584  0.761209  1
  Mn  Mn8  1  0.251736  0.258861  0.512953  1
  Mn  Mn9  1  0.493174  0.252294  0.243366  1
  Mn  Mn10  1  0.993745  0.416942  0.239512  1
  Mn  Mn11  1  0.744597  0.243222  0.992758  1
  Mn  Mn12  1  0.007303  0.576574  0.746526  1
  Mn  Mn13  1  0.488705  0.583770  0.235963  1
  Mn  Mn14  1  0.006826  0.752294  0.256634  1
  Mn  Mn15  1  0.248264  0.758861  0.987047  1
  Mn  Mn16  1  0.491310  0.755584  0.738791  1
  Mn  Mn17  1  0.755403  0.743222  0.507242  1
  Mn  Mn18  1  0.506255  0.916942  0.260488  1
  O  O19  1  0.130411  0.102655  0.649083  1
  O  O20  1  0.373178  0.115820  0.368436  1
  O  O21  1  0.408670  0.229177  0.872110  1
  O  O22  1  0.642242  0.082487  0.164861  1
  O  O23  1  0.083724  0.257248  0.128786  1
  O  O24  1  0.847582  0.104966  0.861706  1
  O  O25  1  0.125208  0.403975  0.648827  1
  O  O26  1  0.587208  0.229469  0.632674  1
  O  O27  1  0.361676  0.418759  0.335839  1
  O  O28  1  0.913794  0.237803  0.380633  1
  O  O29  1  0.640705  0.392608  0.126998  1
  O  O30  1  0.879701  0.418642  0.855089  1
  O  O31  1  0.126822  0.615820  0.131564  1
  O  O32  1  0.369590  0.602655  0.850917  1
  O  O33  1  0.091330  0.729177  0.627890  1
  O  O34  1  0.652418  0.604966  0.638294  1
  O  O35  1  0.416276  0.757248  0.371214  1
  O  O36  1  0.857758  0.582487  0.335139  1
  O  O37  1  0.138324  0.918759  0.164161  1
  O  O38  1  0.912792  0.729469  0.867326  1
  O  O39  1  0.374792  0.903975  0.851173  1
  O  O40  1  0.586206  0.737803  0.119367  1
  O  O41  1  0.620299  0.918642  0.644911  1
  O  O42  1  0.859295  0.892608  0.373002  1
