# generated using pymatgen
data_Li5MnO4
_symmetry_space_group_name_H-M   'P 1'
_cell_length_a   5.05732925
_cell_length_b   7.37379679
_cell_length_c   5.14302895
_cell_angle_alpha   90.00007872
_cell_angle_beta   89.99930300
_cell_angle_gamma   90.00011386
_symmetry_Int_Tables_number   1
_chemical_formula_structural   Li5MnO4
_chemical_formula_sum   'Li10 Mn2 O8'
_cell_volume   191.79238624
_cell_formula_units_Z   2
loop_
 _symmetry_equiv_pos_site_id
 _symmetry_equiv_pos_as_xyz
  1  'x, y, z'
loop_
 _atom_site_type_symbol
 _atom_site_label
 _atom_site_symmetry_multiplicity
 _atom_site_fract_x
 _atom_site_fract_y
 _atom_site_fract_z
 _atom_site_occupancy
  Li  Li1  1  0.061112  0.328288  0.925030  1
  Li  Li2  1  0.061112  0.671711  0.925032  1
  Li  Li3  1  0.230426  0.690856  0.413802  1
  Li  Li4  1  0.230427  0.309143  0.413803  1
  Li  Li5  1  0.278526  0.999999  0.666191  1
  Li  Li6  1  0.561110  0.171713  0.074970  1
  Li  Li7  1  0.561111  0.828286  0.074971  1
  Li  Li8  1  0.730428  0.190856  0.586198  1
  Li  Li9  1  0.730428  0.809143  0.586197  1
  Li  Li10  1  0.778526  0.499999  0.333806  1
  Mn  Mn11  1  0.015691  -0.000000  0.152077  1
  Mn  Mn12  1  0.515704  0.500002  0.847929  1
  O  O13  1  0.363031  0.000001  0.295295  1
  O  O14  1  0.372395  0.500000  0.189556  1
  O  O15  1  0.397616  0.258871  0.755902  1
  O  O16  1  0.397616  0.741130  0.755903  1
  O  O17  1  0.863043  0.500000  0.704701  1
  O  O18  1  0.872395  0.000001  0.810443  1
  O  O19  1  0.897614  0.758870  0.244095  1
  O  O20  1  0.897615  0.241131  0.244098  1
