# generated using pymatgen
data_Li5Mn7O12
_symmetry_space_group_name_H-M   'P 1'
_cell_length_a   5.24589652
_cell_length_b   5.24589621
_cell_length_c   9.97329826
_cell_angle_alpha   84.95020550
_cell_angle_beta   95.04979332
_cell_angle_gamma   59.73479199
_symmetry_Int_Tables_number   1
_chemical_formula_structural   Li5Mn7O12
_chemical_formula_sum   'Li5 Mn7 O12'
_cell_volume   233.31885862
_cell_formula_units_Z   1
loop_
 _symmetry_equiv_pos_site_id
 _symmetry_equiv_pos_as_xyz
  1  'x, y, z'
loop_
 _atom_site_type_symbol
 _atom_site_label
 _atom_site_symmetry_multiplicity
 _atom_site_fract_x
 _atom_site_fract_y
 _atom_site_fract_z
 _atom_site_occupancy
  Li  Li1  1  0.158114  0.664100  0.503009  1
  Li  Li2  1  0.332066  0.843693  0.995180  1
  Li  Li3  1  0.664100  0.158114  0.996991  1
  Li  Li4  1  0.843693  0.332066  0.504820  1
  Li  Li5  1  0.915456  0.915456  0.750000  1
  Mn  Mn6  1  0.078702  0.078702  0.250000  1
  Mn  Mn7  1  0.998265  0.508814  0.994172  1
  Mn  Mn8  1  0.249288  0.249288  0.750000  1
  Mn  Mn9  1  0.508814  0.998265  0.505828  1
  Mn  Mn10  1  0.421413  0.421413  0.250000  1
  Mn  Mn11  1  0.577587  0.577587  0.750000  1
  Mn  Mn12  1  0.749940  0.749940  0.250000  1
  O  O13  1  0.982219  0.224805  0.869334  1
  O  O14  1  0.224805  0.982219  0.630666  1
  O  O15  1  0.110339  0.391648  0.367545  1
  O  O16  1  0.391648  0.110339  0.132455  1
  O  O17  1  0.293949  0.517750  0.865361  1
  O  O18  1  0.517750  0.293949  0.634639  1
  O  O19  1  0.451185  0.724466  0.375063  1
  O  O20  1  0.724466  0.451185  0.124937  1
  O  O21  1  0.612408  0.872350  0.868574  1
  O  O22  1  0.872350  0.612408  0.631426  1
  O  O23  1  0.781618  0.039825  0.380627  1
  O  O24  1  0.039825  0.781618  0.119373  1
