# generated using pymatgen
data_NaPb
_symmetry_space_group_name_H-M   'P 1'
_cell_length_a   10.67360895
_cell_length_b   10.67360895
_cell_length_c   11.76823405
_cell_angle_alpha   116.96797323
_cell_angle_beta   116.96797327
_cell_angle_gamma   89.99999998
_symmetry_Int_Tables_number   1
_chemical_formula_structural   NaPb
_chemical_formula_sum   'Na16 Pb16'
_cell_volume   1028.67207651
_cell_formula_units_Z   16
loop_
 _symmetry_equiv_pos_site_id
 _symmetry_equiv_pos_as_xyz
  1  'x, y, z'
loop_
 _atom_site_type_symbol
 _atom_site_label
 _atom_site_symmetry_multiplicity
 _atom_site_fract_x
 _atom_site_fract_y
 _atom_site_fract_z
 _atom_site_occupancy
  Na  Na1  1  0.250000  0.368602  0.000000  1
  Na  Na2  1  0.131398  0.250000  0.500000  1
  Na  Na3  1  0.368602  0.750000  0.500000  1
  Na  Na4  1  0.750000  0.131398  0.000000  1
  Na  Na5  1  0.750000  0.631398  0.000000  1
  Na  Na6  1  0.868602  0.750000  0.500000  1
  Na  Na7  1  0.631398  0.250000  0.500000  1
  Na  Na8  1  0.250000  0.868602  0.000000  1
  Na  Na9  1  0.750228  1.000228  0.250000  1
  Na  Na10  1  0.749772  0.750228  0.750000  1
  Na  Na11  1  1.000228  0.499772  0.750000  1
  Na  Na12  1  0.499772  0.749772  0.250000  1
  Na  Na13  1  0.249772  -0.000228  0.750000  1
  Na  Na14  1  0.250228  0.249772  0.250000  1
  Na  Na15  1  -0.000228  0.500228  0.250000  1
  Na  Na16  1  0.500228  0.250228  0.750000  1
  Pb  Pb17  1  0.008991  0.057147  0.877695  1
  Pb  Pb18  1  0.320547  0.008991  0.377695  1
  Pb  Pb19  1  0.057147  0.868704  0.377695  1
  Pb  Pb20  1  0.631296  0.442853  0.122305  1
  Pb  Pb21  1  0.491009  0.179453  0.122305  1
  Pb  Pb22  1  0.179453  0.631296  0.622305  1
  Pb  Pb23  1  0.442853  0.491009  0.622305  1
  Pb  Pb24  1  0.868704  0.320547  0.877695  1
  Pb  Pb25  1  0.991009  0.942853  0.122305  1
  Pb  Pb26  1  0.679453  0.991009  0.622305  1
  Pb  Pb27  1  0.942853  0.131296  0.622305  1
  Pb  Pb28  1  0.368704  0.557147  0.877695  1
  Pb  Pb29  1  0.508991  0.820547  0.877695  1
  Pb  Pb30  1  0.820547  0.368704  0.377695  1
  Pb  Pb31  1  0.557147  0.508991  0.377695  1
  Pb  Pb32  1  0.131296  0.679453  0.122305  1
