# generated using pymatgen
data_Li4Mn7O16
_symmetry_space_group_name_H-M   'P 1'
_cell_length_a   5.22130440
_cell_length_b   7.61520441
_cell_length_c   7.61520494
_cell_angle_alpha   97.99936933
_cell_angle_beta   77.80423902
_cell_angle_gamma   77.80423407
_symmetry_Int_Tables_number   1
_chemical_formula_structural   Li4Mn7O16
_chemical_formula_sum   'Li4 Mn7 O16'
_cell_volume   283.87435029
_cell_formula_units_Z   1
loop_
 _symmetry_equiv_pos_site_id
 _symmetry_equiv_pos_as_xyz
  1  'x, y, z'
loop_
 _atom_site_type_symbol
 _atom_site_label
 _atom_site_symmetry_multiplicity
 _atom_site_fract_x
 _atom_site_fract_y
 _atom_site_fract_z
 _atom_site_occupancy
  Li  Li1  1  0.507959  0.251924  0.251924  1
  Li  Li2  1  0.500000  0.126896  0.873104  1
  Li  Li3  1  0.492041  0.748076  0.748076  1
  Li  Li4  1  0.500000  0.873104  0.126896  1
  Mn  Mn5  1  0.995149  0.121675  0.368811  1
  Mn  Mn6  1  0.000000  0.245079  0.754921  1
  Mn  Mn7  1  0.995149  0.368811  0.121675  1
  Mn  Mn8  1  0.000000  0.500000  0.500000  1
  Mn  Mn9  1  1.000000  0.754921  0.245079  1
  Mn  Mn10  1  0.004851  0.631189  0.878325  1
  Mn  Mn11  1  0.004851  0.878325  0.631189  1
  O  O12  1  0.216641  0.008209  0.739478  1
  O  O13  1  0.225084  0.147448  0.147448  1
  O  O14  1  0.196171  0.259484  0.504892  1
  O  O15  1  0.795892  0.115091  0.624828  1
  O  O16  1  0.783359  0.260522  0.991791  1
  O  O17  1  0.204108  0.375172  0.884909  1
  O  O18  1  0.791260  0.364720  0.364720  1
  O  O19  1  0.196171  0.504892  0.259484  1
  O  O20  1  0.208740  0.635280  0.635280  1
  O  O21  1  0.803829  0.495108  0.740516  1
  O  O22  1  0.216641  0.739478  0.008209  1
  O  O23  1  0.795892  0.624828  0.115091  1
  O  O24  1  0.204108  0.884909  0.375172  1
  O  O25  1  0.803829  0.740516  0.495108  1
  O  O26  1  0.783359  0.991791  0.260522  1
  O  O27  1  0.774916  0.852552  0.852552  1
