# generated using pymatgen
data_Li3Mn3O8
_symmetry_space_group_name_H-M   'P 1'
_cell_length_a   8.27511889
_cell_length_b   8.27511311
_cell_length_c   8.27511554
_cell_angle_alpha   90.00004431
_cell_angle_beta   89.99987966
_cell_angle_gamma   89.99989046
_symmetry_Int_Tables_number   1
_chemical_formula_structural   Li3Mn3O8
_chemical_formula_sum   'Li12 Mn12 O32'
_cell_volume   566.65959523
_cell_formula_units_Z   4
loop_
 _symmetry_equiv_pos_site_id
 _symmetry_equiv_pos_as_xyz
  1  'x, y, z'
loop_
 _atom_site_type_symbol
 _atom_site_label
 _atom_site_symmetry_multiplicity
 _atom_site_fract_x
 _atom_site_fract_y
 _atom_site_fract_z
 _atom_site_occupancy
  Li  Li1  1  0.003583  0.003584  0.003581  1
  Li  Li2  1  0.124999  0.875001  0.375000  1
  Li  Li3  1  0.246418  0.246415  0.246416  1
  Li  Li4  1  0.253580  0.753585  0.746419  1
  Li  Li5  1  0.374999  0.124999  0.875001  1
  Li  Li6  1  0.496415  0.996420  0.503582  1
  Li  Li7  1  0.503579  0.496415  0.996417  1
  Li  Li8  1  0.625002  0.625003  0.625004  1
  Li  Li9  1  0.746416  0.253579  0.753585  1
  Li  Li10  1  0.753583  0.746418  0.253580  1
  Li  Li11  1  0.875000  0.374998  0.124998  1
  Li  Li12  1  0.996418  0.503581  0.496417  1
  Mn  Mn13  1  0.122340  0.127675  0.625010  1
  Mn  Mn14  1  0.125003  0.377656  0.872334  1
  Mn  Mn15  1  0.127668  0.625002  0.122333  1
  Mn  Mn16  1  0.372326  0.374992  0.622335  1
  Mn  Mn17  1  0.374995  0.622334  0.372330  1
  Mn  Mn18  1  0.377667  0.872338  0.124994  1
  Mn  Mn19  1  0.622335  0.372323  0.374995  1
  Mn  Mn20  1  0.624999  0.122336  0.127659  1
  Mn  Mn21  1  0.627662  0.875006  0.877664  1
  Mn  Mn22  1  0.872336  0.124999  0.377666  1
  Mn  Mn23  1  0.875004  0.877664  0.627668  1
  Mn  Mn24  1  0.877668  0.627673  0.875002  1
  O  O25  1  0.098873  0.130061  0.393340  1
  O  O26  1  0.106659  0.901126  0.630059  1
  O  O27  1  0.115314  0.615315  0.884685  1
  O  O28  1  0.130061  0.393342  0.098871  1
  O  O29  1  0.119939  0.151131  0.856654  1
  O  O30  1  0.134686  0.365315  0.634684  1
  O  O31  1  0.143343  0.619938  0.348876  1
  O  O32  1  0.151126  0.856656  0.119938  1
  O  O33  1  0.348873  0.143345  0.619938  1
  O  O34  1  0.356658  0.380062  0.848873  1
  O  O35  1  0.365314  0.634684  0.134688  1
  O  O36  1  0.380061  0.848873  0.356661  1
  O  O37  1  0.369937  0.606661  0.598877  1
  O  O38  1  0.384688  0.384689  0.384688  1
  O  O39  1  0.393342  0.098869  0.130062  1
  O  O40  1  0.401128  0.869940  0.893345  1
  O  O41  1  0.598879  0.369938  0.606661  1
  O  O42  1  0.606659  0.598881  0.369938  1
  O  O43  1  0.615315  0.884683  0.115317  1
  O  O44  1  0.630059  0.106658  0.901129  1
  O  O45  1  0.619937  0.348874  0.143344  1
  O  O46  1  0.634687  0.134689  0.365314  1
  O  O47  1  0.643342  0.880060  0.651129  1
  O  O48  1  0.651128  0.643339  0.880060  1
  O  O49  1  0.848874  0.356660  0.380061  1
  O  O50  1  0.856659  0.119939  0.151128  1
  O  O51  1  0.865314  0.865310  0.865312  1
  O  O52  1  0.880059  0.651126  0.643340  1
  O  O53  1  0.869940  0.893342  0.401124  1
  O  O54  1  0.884685  0.115314  0.615313  1
  O  O55  1  0.893341  0.401125  0.869939  1
  O  O56  1  0.901125  0.630059  0.106658  1
