# generated using pymatgen
data_Li14Mn2O9
_symmetry_space_group_name_H-M   'P 1'
_cell_length_a   5.91665638
_cell_length_b   5.91668425
_cell_length_c   8.13279975
_cell_angle_alpha   89.99993185
_cell_angle_beta   89.99984956
_cell_angle_gamma   120.00045301
_symmetry_Int_Tables_number   1
_chemical_formula_structural   Li14Mn2O9
_chemical_formula_sum   'Li14 Mn2 O9'
_cell_volume   246.56048122
_cell_formula_units_Z   1
loop_
 _symmetry_equiv_pos_site_id
 _symmetry_equiv_pos_as_xyz
  1  'x, y, z'
loop_
 _atom_site_type_symbol
 _atom_site_label
 _atom_site_symmetry_multiplicity
 _atom_site_fract_x
 _atom_site_fract_y
 _atom_site_fract_z
 _atom_site_occupancy
  Li  Li1  1  0.064997  0.705605  0.904464  1
  Li  Li2  1  0.311140  0.937954  0.585231  1
  Li  Li3  1  0.062037  0.373202  0.585235  1
  Li  Li4  1  0.999996  0.000006  0.260306  1
  Li  Li5  1  0.999994  -0.000001  0.739696  1
  Li  Li6  1  0.294394  0.359397  0.904471  1
  Li  Li7  1  0.640583  0.934985  0.904465  1
  Li  Li8  1  0.373190  0.311156  0.414766  1
  Li  Li9  1  0.626793  0.688846  0.585234  1
  Li  Li10  1  0.359389  0.065003  0.095528  1
  Li  Li11  1  0.705608  0.640596  0.095540  1
  Li  Li12  1  0.937941  0.626798  0.414765  1
  Li  Li13  1  0.688835  0.062044  0.414764  1
  Li  Li14  1  0.934993  0.294405  0.095531  1
  Mn  Mn15  1  0.333329  0.666682  0.252203  1
  Mn  Mn16  1  0.666657  0.333325  0.747806  1
  O  O17  1  0.309948  0.979076  0.341436  1
  O  O18  1  0.020919  0.330889  0.341436  1
  O  O19  1  0.333317  0.666658  0.004599  1
  O  O20  1  0.000003  0.999994  0.000002  1
  O  O21  1  0.330872  0.309951  0.658561  1
  O  O22  1  0.669110  0.690054  0.341438  1
  O  O23  1  0.666659  0.333333  0.995402  1
  O  O24  1  0.979058  0.669114  0.658560  1
  O  O25  1  0.690036  0.020925  0.658563  1
