# generated using pymatgen
data_NaGe
_symmetry_space_group_name_H-M   'P 1'
_cell_length_a   6.71710074
_cell_length_b   11.48187674
_cell_length_c   11.91590186
_cell_angle_alpha   115.81123120
_cell_angle_beta   90.00000000
_cell_angle_gamma   90.00000000
_symmetry_Int_Tables_number   1
_chemical_formula_structural   NaGe
_chemical_formula_sum   'Na16 Ge16'
_cell_volume   827.32624330
_cell_formula_units_Z   16
loop_
 _symmetry_equiv_pos_site_id
 _symmetry_equiv_pos_as_xyz
  1  'x, y, z'
loop_
 _atom_site_type_symbol
 _atom_site_label
 _atom_site_symmetry_multiplicity
 _atom_site_fract_x
 _atom_site_fract_y
 _atom_site_fract_z
 _atom_site_occupancy
  Na  Na1  1  0.140188  0.452764  0.860172  1
  Na  Na2  1  0.640188  0.047236  0.139828  1
  Na  Na3  1  0.859812  0.547236  0.139828  1
  Na  Na4  1  0.359812  0.952764  0.860172  1
  Na  Na5  1  0.183627  0.597651  0.605404  1
  Na  Na6  1  0.683627  0.902349  0.394596  1
  Na  Na7  1  0.816373  0.402349  0.394596  1
  Na  Na8  1  0.316373  0.097651  0.605404  1
  Na  Na9  1  0.849674  0.239310  0.606650  1
  Na  Na10  1  0.349674  0.260690  0.393350  1
  Na  Na11  1  0.150326  0.760690  0.393350  1
  Na  Na12  1  0.650326  0.739310  0.606650  1
  Na  Na13  1  0.934628  0.766694  0.903457  1
  Na  Na14  1  0.434628  0.733306  0.096543  1
  Na  Na15  1  0.065372  0.233306  0.096543  1
  Na  Na16  1  0.565372  0.266694  0.903457  1
  Ge  Ge17  1  0.682861  0.507928  0.876589  1
  Ge  Ge18  1  0.182861  0.992072  0.123411  1
  Ge  Ge19  1  0.317139  0.492072  0.123411  1
  Ge  Ge20  1  0.817139  0.007928  0.876589  1
  Ge  Ge21  1  0.782504  0.525699  0.675425  1
  Ge  Ge22  1  0.282504  0.974301  0.324575  1
  Ge  Ge23  1  0.217496  0.474301  0.324575  1
  Ge  Ge24  1  0.717496  0.025699  0.675425  1
  Ge  Ge25  1  0.463039  0.400550  0.676372  1
  Ge  Ge26  1  0.963039  0.099450  0.323628  1
  Ge  Ge27  1  0.536961  0.599450  0.323628  1
  Ge  Ge28  1  0.036961  0.900550  0.676372  1
  Ge  Ge29  1  0.475246  0.654556  0.807946  1
  Ge  Ge30  1  0.975246  0.845444  0.192054  1
  Ge  Ge31  1  0.524754  0.345444  0.192054  1
  Ge  Ge32  1  0.024754  0.154556  0.807946  1
