# generated using pymatgen
data_KPb
_symmetry_space_group_name_H-M   'P 1'
_cell_length_a   11.72921832
_cell_length_b   11.72921832
_cell_length_c   12.71630247
_cell_angle_alpha   117.46380910
_cell_angle_beta   117.46380914
_cell_angle_gamma   89.99999999
_symmetry_Int_Tables_number   1
_chemical_formula_structural   KPb
_chemical_formula_sum   'K16 Pb16'
_cell_volume   1326.12934851
_cell_formula_units_Z   16
loop_
 _symmetry_equiv_pos_site_id
 _symmetry_equiv_pos_as_xyz
  1  'x, y, z'
loop_
 _atom_site_type_symbol
 _atom_site_label
 _atom_site_symmetry_multiplicity
 _atom_site_fract_x
 _atom_site_fract_y
 _atom_site_fract_z
 _atom_site_occupancy
  K  K1  1  0.619063  0.250000  0.500000  1
  K  K2  1  0.750000  0.619063  0.000000  1
  K  K3  1  0.250000  0.880937  0.000000  1
  K  K4  1  0.880937  0.750000  0.500000  1
  K  K5  1  0.380937  0.750000  0.500000  1
  K  K6  1  0.250000  0.380937  0.000000  1
  K  K7  1  0.750000  0.119063  0.000000  1
  K  K8  1  0.119063  0.250000  0.500000  1
  K  K9  1  0.497182  0.247182  0.750000  1
  K  K10  1  0.002818  0.497182  0.250000  1
  K  K11  1  0.247182  0.252818  0.250000  1
  K  K12  1  0.252818  0.002818  0.750000  1
  K  K13  1  0.502818  0.752818  0.250000  1
  K  K14  1  0.997182  0.502818  0.750000  1
  K  K15  1  0.752818  0.747182  0.750000  1
  K  K16  1  0.747182  0.997182  0.250000  1
  Pb  Pb17  1  0.127842  0.696635  0.132526  1
  Pb  Pb18  1  0.564109  0.495316  0.367474  1
  Pb  Pb19  1  0.803365  0.372158  0.367474  1
  Pb  Pb20  1  0.495316  0.803365  0.867474  1
  Pb  Pb21  1  0.372158  0.564109  0.867474  1
  Pb  Pb22  1  0.935891  0.127842  0.632526  1
  Pb  Pb23  1  0.696635  0.004684  0.632526  1
  Pb  Pb24  1  0.004684  0.935891  0.132526  1
  Pb  Pb25  1  0.872158  0.303365  0.867474  1
  Pb  Pb26  1  0.435891  0.504684  0.632526  1
  Pb  Pb27  1  0.196635  0.627842  0.632526  1
  Pb  Pb28  1  0.504684  0.196635  0.132526  1
  Pb  Pb29  1  0.627842  0.435891  0.132526  1
  Pb  Pb30  1  0.064109  0.872158  0.367474  1
  Pb  Pb31  1  0.303365  0.995316  0.367474  1
  Pb  Pb32  1  0.995316  0.064109  0.867474  1
