# generated using pymatgen
data_Na2Cl
_symmetry_space_group_name_H-M   'P 1'
_cell_length_a   4.02737672
_cell_length_b   6.43158599
_cell_length_c   7.37041185
_cell_angle_alpha   115.86875936
_cell_angle_beta   90.00000000
_cell_angle_gamma   90.00000000
_symmetry_Int_Tables_number   1
_chemical_formula_structural   Na2Cl
_chemical_formula_sum   'Na4 Cl2'
_cell_volume   171.78136920
_cell_formula_units_Z   2
loop_
 _symmetry_equiv_pos_site_id
 _symmetry_equiv_pos_as_xyz
  1  'x, y, z'
loop_
 _atom_site_type_symbol
 _atom_site_label
 _atom_site_symmetry_multiplicity
 _atom_site_fract_x
 _atom_site_fract_y
 _atom_site_fract_z
 _atom_site_occupancy
  Na  Na1  1  0.000000  0.500000  -0.000000  1
  Na  Na2  1  0.500000  0.000000  -0.000000  1
  Na  Na3  1  0.500000  0.303594  0.607187  1
  Na  Na4  1  0.500000  0.696406  0.392813  1
  Cl  Cl5  1  0.000000  0.840647  0.681295  1
  Cl  Cl6  1  0.000000  0.159353  0.318705  1
