# generated using pymatgen
data_Na2Cl
_symmetry_space_group_name_H-M   'P 1'
_cell_length_a   3.92588216
_cell_length_b   7.98432611
_cell_length_c   7.98432611
_cell_angle_alpha   52.78192252
_cell_angle_beta   75.76797495
_cell_angle_gamma   75.76797495
_symmetry_Int_Tables_number   1
_chemical_formula_structural   Na2Cl
_chemical_formula_sum   'Na4 Cl2'
_cell_volume   191.64904027
_cell_formula_units_Z   2
loop_
 _symmetry_equiv_pos_site_id
 _symmetry_equiv_pos_as_xyz
  1  'x, y, z'
loop_
 _atom_site_type_symbol
 _atom_site_label
 _atom_site_symmetry_multiplicity
 _atom_site_fract_x
 _atom_site_fract_y
 _atom_site_fract_z
 _atom_site_occupancy
  Na  Na1  1  0.644113  0.842849  0.368926  1
  Na  Na2  1  0.355887  0.631074  0.157151  1
  Na  Na3  1  0.355887  0.157151  0.631074  1
  Na  Na4  1  0.644113  0.368926  0.842849  1
  Cl  Cl5  1  0.895151  0.854849  0.854849  1
  Cl  Cl6  1  0.104849  0.145151  0.145151  1
