# generated using pymatgen
data_Na5Sn2
_symmetry_space_group_name_H-M   'P 1'
_cell_length_a   5.47507682
_cell_length_b   5.47507682
_cell_length_c   8.21503575
_cell_angle_alpha   70.53474734
_cell_angle_beta   70.53474734
_cell_angle_gamma   59.99999713
_symmetry_Int_Tables_number   1
_chemical_formula_structural   Na5Sn2
_chemical_formula_sum   'Na5 Sn2'
_cell_volume   196.84518475
_cell_formula_units_Z   1
loop_
 _symmetry_equiv_pos_site_id
 _symmetry_equiv_pos_as_xyz
  1  'x, y, z'
loop_
 _atom_site_type_symbol
 _atom_site_label
 _atom_site_symmetry_multiplicity
 _atom_site_fract_x
 _atom_site_fract_y
 _atom_site_fract_z
 _atom_site_occupancy
  Na  Na1  1  0.500000  0.500000  0.500000  1
  Na  Na2  1  0.352608  0.352608  0.942177  1
  Na  Na3  1  0.647392  0.647392  0.057823  1
  Na  Na4  1  0.212735  0.212735  0.361794  1
  Na  Na5  1  0.787265  0.787265  0.638206  1
  Sn  Sn6  1  0.066206  0.066206  0.801382  1
  Sn  Sn7  1  0.933794  0.933794  0.198618  1
