# generated using pymatgen
data_NaTl
_symmetry_space_group_name_H-M   'P 1'
_cell_length_a   5.30342633
_cell_length_b   5.30342633
_cell_length_c   10.33023256
_cell_angle_alpha   90.00000000
_cell_angle_beta   90.00000000
_cell_angle_gamma   119.98613031
_symmetry_Int_Tables_number   1
_chemical_formula_structural   NaTl
_chemical_formula_sum   'Na4 Tl4'
_cell_volume   251.66017304
_cell_formula_units_Z   4
loop_
 _symmetry_equiv_pos_site_id
 _symmetry_equiv_pos_as_xyz
  1  'x, y, z'
loop_
 _atom_site_type_symbol
 _atom_site_label
 _atom_site_symmetry_multiplicity
 _atom_site_fract_x
 _atom_site_fract_y
 _atom_site_fract_z
 _atom_site_occupancy
  Na  Na1  1  0.666702  0.333298  0.578189  1
  Na  Na2  1  0.333298  0.666702  0.421811  1
  Na  Na3  1  0.333298  0.666702  0.078189  1
  Na  Na4  1  0.666702  0.333298  0.921811  1
  Tl  Tl5  1  0.000017  0.999983  0.750000  1
  Tl  Tl6  1  0.999983  0.000017  0.250000  1
  Tl  Tl7  1  0.666720  0.333280  0.250000  1
  Tl  Tl8  1  0.333280  0.666720  0.750000  1
