# generated using pymatgen
data_NaN
_symmetry_space_group_name_H-M   'P 1'
_cell_length_a   5.88085736
_cell_length_b   5.88085736
_cell_length_c   6.61334337
_cell_angle_alpha   119.35675834
_cell_angle_beta   119.35675834
_cell_angle_gamma   84.11012767
_symmetry_Int_Tables_number   1
_chemical_formula_structural   NaN
_chemical_formula_sum   'Na4 N4'
_cell_volume   170.86912065
_cell_formula_units_Z   4
loop_
 _symmetry_equiv_pos_site_id
 _symmetry_equiv_pos_as_xyz
  1  'x, y, z'
loop_
 _atom_site_type_symbol
 _atom_site_label
 _atom_site_symmetry_multiplicity
 _atom_site_fract_x
 _atom_site_fract_y
 _atom_site_fract_z
 _atom_site_occupancy
  Na  Na1  1  0.501370  0.001370  0.002741  1
  Na  Na2  1  0.998630  0.498630  0.997259  1
  Na  Na3  1  0.748630  0.748630  0.497259  1
  Na  Na4  1  0.251370  0.251370  0.502741  1
  N  N5  1  0.181285  0.681285  0.500000  1
  N  N6  1  0.318715  0.818715  0.500000  1
  N  N7  1  0.068715  0.068715  -0.000000  1
  N  N8  1  0.931285  0.931285  -0.000000  1
