# generated using pymatgen
data_Li4MnO3
_symmetry_space_group_name_H-M   'P 1'
_cell_length_a   5.12926464
_cell_length_b   5.79950495
_cell_length_c   6.85350180
_cell_angle_alpha   71.51872729
_cell_angle_beta   89.94164486
_cell_angle_gamma   63.78576862
_symmetry_Int_Tables_number   1
_chemical_formula_structural   Li4MnO3
_chemical_formula_sum   'Li8 Mn2 O6'
_cell_volume   171.14049465
_cell_formula_units_Z   2
loop_
 _symmetry_equiv_pos_site_id
 _symmetry_equiv_pos_as_xyz
  1  'x, y, z'
loop_
 _atom_site_type_symbol
 _atom_site_label
 _atom_site_symmetry_multiplicity
 _atom_site_fract_x
 _atom_site_fract_y
 _atom_site_fract_z
 _atom_site_occupancy
  Li  Li1  1  0.972805  0.763398  0.924117  1
  Li  Li2  1  0.264608  0.760677  0.422554  1
  Li  Li3  1  0.882494  0.549051  0.641744  1
  Li  Li4  1  0.512268  0.411932  0.830617  1
  Li  Li5  1  0.566868  0.549944  0.141940  1
  Li  Li6  1  0.075876  0.408278  0.331382  1
  Li  Li7  1  0.712806  0.271041  0.532133  1
  Li  Li8  1  0.013064  0.274497  0.031334  1
  Mn  Mn9  1  0.335029  0.031094  0.740825  1
  Mn  Mn10  1  0.632719  0.030927  0.239603  1
  O  O11  1  0.676525  0.665468  0.862395  1
  O  O12  1  0.659519  0.663531  0.361953  1
  O  O13  1  0.294496  0.406287  0.582552  1
  O  O14  1  0.929939  0.129523  0.823566  1
  O  O15  1  0.298383  0.407238  0.082812  1
  O  O16  1  0.941164  0.126304  0.323877  1
