# generated using pymatgen
data_NaTl
_symmetry_space_group_name_H-M   'P 1'
_cell_length_a   6.39502758
_cell_length_b   6.39502758
_cell_length_c   6.07374433
_cell_angle_alpha   90.00000000
_cell_angle_beta   90.00000000
_cell_angle_gamma   99.16621000
_symmetry_Int_Tables_number   1
_chemical_formula_structural   NaTl
_chemical_formula_sum   'Na4 Tl4'
_cell_volume   245.22224402
_cell_formula_units_Z   4
loop_
 _symmetry_equiv_pos_site_id
 _symmetry_equiv_pos_as_xyz
  1  'x, y, z'
loop_
 _atom_site_type_symbol
 _atom_site_label
 _atom_site_symmetry_multiplicity
 _atom_site_fract_x
 _atom_site_fract_y
 _atom_site_fract_z
 _atom_site_occupancy
  Na  Na1  1  0.129641  0.509336  0.250000  1
  Na  Na2  1  0.490664  0.870359  0.750000  1
  Na  Na3  1  0.870359  0.490664  0.750000  1
  Na  Na4  1  0.509336  0.129641  0.250000  1
  Tl  Tl5  1  -0.000000  0.000000  0.500000  1
  Tl  Tl6  1  0.000000  -0.000000  0.000000  1
  Tl  Tl7  1  0.632663  0.632663  0.250000  1
  Tl  Tl8  1  0.367337  0.367337  0.750000  1
