# generated using pymatgen
data_Li2Mn3O6
_symmetry_space_group_name_H-M   'P 1'
_cell_length_a   5.18898989
_cell_length_b   5.18179854
_cell_length_c   10.25068968
_cell_angle_alpha   90.00000000
_cell_angle_beta   90.00000000
_cell_angle_gamma   60.04583153
_symmetry_Int_Tables_number   1
_chemical_formula_structural   Li2Mn3O6
_chemical_formula_sum   'Li4 Mn6 O12'
_cell_volume   238.80721915
_cell_formula_units_Z   2
loop_
 _symmetry_equiv_pos_site_id
 _symmetry_equiv_pos_as_xyz
  1  'x, y, z'
loop_
 _atom_site_type_symbol
 _atom_site_label
 _atom_site_symmetry_multiplicity
 _atom_site_fract_x
 _atom_site_fract_y
 _atom_site_fract_z
 _atom_site_occupancy
  Li  Li1  1  0.500000  0.153297  0.750000  1
  Li  Li2  1  0.500000  0.346703  0.250000  1
  Li  Li3  1  0.500000  0.653297  0.750000  1
  Li  Li4  1  0.500000  0.846703  0.250000  1
  Mn  Mn5  1  0.000000  0.000000  0.000000  1
  Mn  Mn6  1  0.000000  0.500000  0.500000  1
  Mn  Mn7  1  0.327150  0.336424  0.000000  1
  Mn  Mn8  1  0.327150  0.836424  0.500000  1
  Mn  Mn9  1  0.672850  0.163576  0.500000  1
  Mn  Mn10  1  0.672850  0.663576  0.000000  1
  O  O11  1  1.000000  0.173422  0.592039  1
  O  O12  1  0.000000  0.326578  0.092038  1
  O  O13  1  1.000000  0.673422  0.907961  1
  O  O14  1  0.363965  0.977944  0.892660  1
  O  O15  1  0.000000  0.826578  0.407961  1
  O  O16  1  0.363965  0.158091  0.392661  1
  O  O17  1  0.363965  0.477944  0.607340  1
  O  O18  1  0.363965  0.658091  0.107340  1
  O  O19  1  0.636035  0.022056  0.107340  1
  O  O20  1  0.636035  0.341909  0.892660  1
  O  O21  1  0.636035  0.522056  0.392661  1
  O  O22  1  0.636035  0.841909  0.607340  1
