# generated using pymatgen
data_Na5As4
_symmetry_space_group_name_H-M   'P 1'
_cell_length_a   4.65858754
_cell_length_b   5.74821389
_cell_length_c   9.60977976
_cell_angle_alpha   73.30950723
_cell_angle_beta   75.97248095
_cell_angle_gamma   66.09505162
_symmetry_Int_Tables_number   1
_chemical_formula_structural   Na5As4
_chemical_formula_sum   'Na5 As4'
_cell_volume   223.00478575
_cell_formula_units_Z   1
loop_
 _symmetry_equiv_pos_site_id
 _symmetry_equiv_pos_as_xyz
  1  'x, y, z'
loop_
 _atom_site_type_symbol
 _atom_site_label
 _atom_site_symmetry_multiplicity
 _atom_site_fract_x
 _atom_site_fract_y
 _atom_site_fract_z
 _atom_site_occupancy
  Na  Na1  1  0.099578  0.185961  0.614883  1
  Na  Na2  1  0.900422  0.814039  0.385117  1
  Na  Na3  1  0.754898  0.654983  0.835221  1
  Na  Na4  1  0.245102  0.345017  0.164779  1
  Na  Na5  1  0.000000  -0.000000  -0.000000  1
  As  As6  1  0.456496  0.259132  0.827877  1
  As  As7  1  0.543504  0.740868  0.172123  1
  As  As8  1  0.392585  0.609036  0.605795  1
  As  As9  1  0.607415  0.390964  0.394205  1
