# generated using pymatgen
data_Na3Cl2
_symmetry_space_group_name_H-M   'P 1'
_cell_length_a   3.52763626
_cell_length_b   3.51990224
_cell_length_c   10.32141193
_cell_angle_alpha   99.81773860
_cell_angle_beta   90.00000000
_cell_angle_gamma   90.00000000
_symmetry_Int_Tables_number   1
_chemical_formula_structural   Na3Cl2
_chemical_formula_sum   'Na3 Cl2'
_cell_volume   126.28341097
_cell_formula_units_Z   1
loop_
 _symmetry_equiv_pos_site_id
 _symmetry_equiv_pos_as_xyz
  1  'x, y, z'
loop_
 _atom_site_type_symbol
 _atom_site_label
 _atom_site_symmetry_multiplicity
 _atom_site_fract_x
 _atom_site_fract_y
 _atom_site_fract_z
 _atom_site_occupancy
  Na  Na1  1  0.000000  0.500000  0.000000  1
  Na  Na2  1  0.000000  0.331011  0.662022  1
  Na  Na3  1  0.000000  0.668989  0.337978  1
  Cl  Cl4  1  0.500000  0.913402  0.826805  1
  Cl  Cl5  1  0.500000  0.086598  0.173195  1
