# generated using pymatgen
data_LiMnO2
_symmetry_space_group_name_H-M   'P 1'
_cell_length_a   4.29809476
_cell_length_b   5.91777455
_cell_length_c   8.72162975
_cell_angle_alpha   90.01836696
_cell_angle_beta   89.99995441
_cell_angle_gamma   90.00011104
_symmetry_Int_Tables_number   1
_chemical_formula_structural   LiMnO2
_chemical_formula_sum   'Li6 Mn6 O12'
_cell_volume   221.83599989
_cell_formula_units_Z   6
loop_
 _symmetry_equiv_pos_site_id
 _symmetry_equiv_pos_as_xyz
  1  'x, y, z'
loop_
 _atom_site_type_symbol
 _atom_site_label
 _atom_site_symmetry_multiplicity
 _atom_site_fract_x
 _atom_site_fract_y
 _atom_site_fract_z
 _atom_site_occupancy
  Li  Li1  1  0.249998  0.129526  0.083891  1
  Li  Li2  1  0.249996  0.129484  0.416111  1
  Li  Li3  1  0.249997  0.622799  0.750027  1
  Li  Li4  1  0.749998  0.377283  0.249964  1
  Li  Li5  1  0.749998  0.870575  0.583852  1
  Li  Li6  1  0.749996  0.870429  0.916164  1
  Mn  Mn7  1  0.250005  0.631242  0.078571  1
  Mn  Mn8  1  0.250010  0.092656  0.750052  1
  Mn  Mn9  1  0.250010  0.631287  0.421420  1
  Mn  Mn10  1  0.750004  0.368732  0.578569  1
  Mn  Mn11  1  0.749996  0.368689  0.921424  1
  Mn  Mn12  1  0.750008  0.907376  0.249960  1
  O  O13  1  0.249998  0.419677  0.249948  1
  O  O14  1  0.249998  0.375547  0.576609  1
  O  O15  1  0.249999  0.375211  0.923207  1
  O  O16  1  0.250001  0.866198  0.250119  1
  O  O17  1  0.249999  0.860274  0.578607  1
  O  O18  1  0.249997  0.860146  0.921482  1
  O  O19  1  0.750001  0.139823  0.078537  1
  O  O20  1  0.749996  0.133811  0.749897  1
  O  O21  1  0.749998  0.139795  0.421385  1
  O  O22  1  0.749998  0.580294  0.750061  1
  O  O23  1  0.749998  0.624654  0.076759  1
  O  O24  1  0.750001  0.624492  0.423385  1
