# generated using pymatgen
data_CsNa2
_symmetry_space_group_name_H-M   'P 1'
_cell_length_a   7.75741399
_cell_length_b   7.75741399
_cell_length_c   12.73087092
_cell_angle_alpha   90.00000000
_cell_angle_beta   90.00000000
_cell_angle_gamma   120.55502430
_symmetry_Int_Tables_number   1
_chemical_formula_structural   CsNa2
_chemical_formula_sum   'Cs4 Na8'
_cell_volume   659.73039723
_cell_formula_units_Z   4
loop_
 _symmetry_equiv_pos_site_id
 _symmetry_equiv_pos_as_xyz
  1  'x, y, z'
loop_
 _atom_site_type_symbol
 _atom_site_label
 _atom_site_symmetry_multiplicity
 _atom_site_fract_x
 _atom_site_fract_y
 _atom_site_fract_z
 _atom_site_occupancy
  Cs  Cs1  1  0.666445  0.333555  0.563335  1
  Cs  Cs2  1  0.333555  0.666445  0.436665  1
  Cs  Cs3  1  0.333555  0.666445  0.063335  1
  Cs  Cs4  1  0.666445  0.333555  0.936665  1
  Na  Na5  1  -0.000000  0.000000  0.500000  1
  Na  Na6  1  -0.000000  0.000000  -0.000000  1
  Na  Na7  1  0.168305  0.336649  0.750000  1
  Na  Na8  1  0.168318  0.831682  0.750000  1
  Na  Na9  1  0.663351  0.831695  0.750000  1
  Na  Na10  1  0.831695  0.663351  0.250000  1
  Na  Na11  1  0.831682  0.168318  0.250000  1
  Na  Na12  1  0.336649  0.168305  0.250000  1
