# generated using pymatgen
data_Li2Mn2O3
_symmetry_space_group_name_H-M   'P 1'
_cell_length_a   6.27399698
_cell_length_b   5.48621873
_cell_length_c   5.43957417
_cell_angle_alpha   90.00000000
_cell_angle_beta   118.45449369
_cell_angle_gamma   90.00000000
_symmetry_Int_Tables_number   1
_chemical_formula_structural   Li2Mn2O3
_chemical_formula_sum   'Li4 Mn4 O6'
_cell_volume   164.61444321
_cell_formula_units_Z   2
loop_
 _symmetry_equiv_pos_site_id
 _symmetry_equiv_pos_as_xyz
  1  'x, y, z'
loop_
 _atom_site_type_symbol
 _atom_site_label
 _atom_site_symmetry_multiplicity
 _atom_site_fract_x
 _atom_site_fract_y
 _atom_site_fract_z
 _atom_site_occupancy
  Li  Li1  1  0.063062  0.654605  0.878888  1
  Li  Li2  1  0.063062  0.845395  0.378888  1
  Li  Li3  1  0.936938  0.154605  0.621112  1
  Li  Li4  1  0.936938  0.345395  0.121112  1
  Mn  Mn5  1  0.348539  0.403171  0.620316  1
  Mn  Mn6  1  0.651461  0.903171  0.879684  1
  Mn  Mn7  1  0.348539  0.096829  0.120316  1
  Mn  Mn8  1  0.651461  0.596829  0.379684  1
  O  O9  1  0.000000  0.500000  0.500000  1
  O  O10  1  0.000000  0.000000  0.000000  1
  O  O11  1  0.302865  0.037014  0.698102  1
  O  O12  1  0.697135  0.537014  0.801898  1
  O  O13  1  0.302865  0.462986  0.198102  1
  O  O14  1  0.697135  0.962986  0.301898  1
