# generated using pymatgen
data_Na9Sn4
_symmetry_space_group_name_H-M   'P 1'
_cell_length_a   5.44577274
_cell_length_b   5.44905794
_cell_length_c   29.22818822
_cell_angle_alpha   90.00000000
_cell_angle_beta   90.00000000
_cell_angle_gamma   119.98005844
_symmetry_Int_Tables_number   1
_chemical_formula_structural   Na9Sn4
_chemical_formula_sum   'Na18 Sn8'
_cell_volume   751.27805068
_cell_formula_units_Z   2
loop_
 _symmetry_equiv_pos_site_id
 _symmetry_equiv_pos_as_xyz
  1  'x, y, z'
loop_
 _atom_site_type_symbol
 _atom_site_label
 _atom_site_symmetry_multiplicity
 _atom_site_fract_x
 _atom_site_fract_y
 _atom_site_fract_z
 _atom_site_occupancy
  Na  Na1  1  0.831564  0.663128  0.750000  1
  Na  Na2  1  0.168436  0.336872  0.250000  1
  Na  Na3  1  0.168510  0.337020  0.591658  1
  Na  Na4  1  0.831490  0.662980  0.408342  1
  Na  Na5  1  0.831490  0.662980  0.091658  1
  Na  Na6  1  0.168510  0.337020  0.908342  1
  Na  Na7  1  0.500970  0.001939  0.824080  1
  Na  Na8  1  0.499030  0.998061  0.175920  1
  Na  Na9  1  0.499030  0.998061  0.324080  1
  Na  Na10  1  0.500970  0.001939  0.675920  1
  Na  Na11  1  0.163636  0.327272  0.364374  1
  Na  Na12  1  0.836364  0.672728  0.635626  1
  Na  Na13  1  0.836364  0.672728  0.864374  1
  Na  Na14  1  0.163636  0.327272  0.135626  1
  Na  Na15  1  0.166684  0.333367  0.479693  1
  Na  Na16  1  0.833316  0.666633  0.520307  1
  Na  Na17  1  0.833316  0.666633  0.979693  1
  Na  Na18  1  0.166684  0.333367  0.020307  1
  Sn  Sn19  1  0.166606  0.333212  0.798758  1
  Sn  Sn20  1  0.833394  0.666788  0.201242  1
  Sn  Sn21  1  0.833394  0.666788  0.298758  1
  Sn  Sn22  1  0.166606  0.333212  0.701242  1
  Sn  Sn23  1  0.500215  1.000430  0.948771  1
  Sn  Sn24  1  0.499785  -0.000430  0.051229  1
  Sn  Sn25  1  0.499785  -0.000430  0.448771  1
  Sn  Sn26  1  0.500215  1.000430  0.551229  1
