# generated using pymatgen
data_Li3Mn4O8
_symmetry_space_group_name_H-M   'P 1'
_cell_length_a   5.76395683
_cell_length_b   5.93518283
_cell_length_c   6.02546163
_cell_angle_alpha   61.54934225
_cell_angle_beta   61.42557303
_cell_angle_gamma   90.00000000
_symmetry_Int_Tables_number   1
_chemical_formula_structural   Li3Mn4O8
_chemical_formula_sum   'Li3 Mn4 O8'
_cell_volume   152.07315561
_cell_formula_units_Z   1
loop_
 _symmetry_equiv_pos_site_id
 _symmetry_equiv_pos_as_xyz
  1  'x, y, z'
loop_
 _atom_site_type_symbol
 _atom_site_label
 _atom_site_symmetry_multiplicity
 _atom_site_fract_x
 _atom_site_fract_y
 _atom_site_fract_z
 _atom_site_occupancy
  Li  Li1  1  0.500000  0.000000  0.500000  1
  Li  Li2  1  0.500000  0.500000  0.000000  1
  Li  Li3  1  0.000000  0.500000  0.000000  1
  Mn  Mn4  1  0.500000  0.500000  0.500000  1
  Mn  Mn5  1  0.500000  0.000000  0.000000  1
  Mn  Mn6  1  0.000000  0.500000  0.500000  1
  Mn  Mn7  1  0.000000  0.000000  0.000000  1
  O  O8  1  0.721521  0.741107  0.056957  1
  O  O9  1  0.739636  0.713613  0.512411  1
  O  O10  1  0.752048  0.286387  0.487589  1
  O  O11  1  0.256227  0.786723  0.987545  1
  O  O12  1  0.743773  0.213277  0.012455  1
  O  O13  1  0.247952  0.713613  0.512411  1
  O  O14  1  0.260364  0.286387  0.487589  1
  O  O15  1  0.278479  0.258893  0.943043  1
