# generated using pymatgen
data_NaSn2
_symmetry_space_group_name_H-M   'P 1'
_cell_length_a   7.00694830
_cell_length_b   7.68344431
_cell_length_c   15.67520228
_cell_angle_alpha   101.21496934
_cell_angle_beta   90.00000000
_cell_angle_gamma   117.12781598
_symmetry_Int_Tables_number   1
_chemical_formula_structural   NaSn2
_chemical_formula_sum   'Na8 Sn16'
_cell_volume   732.92253423
_cell_formula_units_Z   8
loop_
 _symmetry_equiv_pos_site_id
 _symmetry_equiv_pos_as_xyz
  1  'x, y, z'
loop_
 _atom_site_type_symbol
 _atom_site_label
 _atom_site_symmetry_multiplicity
 _atom_site_fract_x
 _atom_site_fract_y
 _atom_site_fract_z
 _atom_site_occupancy
  Na  Na1  1  0.384822  0.769643  0.564979  1
  Na  Na2  1  0.093845  0.187690  0.417819  1
  Na  Na3  1  0.250110  0.000000  0.000000  1
  Na  Na4  1  0.728048  0.456096  0.912461  1
  Na  Na5  1  0.615178  0.230357  0.435021  1
  Na  Na6  1  0.906155  0.812310  0.582181  1
  Na  Na7  1  0.749890  0.000000  0.000000  1
  Na  Na8  1  0.271952  0.543904  0.087539  1
  Sn  Sn9  1  0.612091  0.657078  0.747712  1
  Sn  Sn10  1  0.330480  0.090010  0.747261  1
  Sn  Sn11  1  0.044987  0.657078  0.747712  1
  Sn  Sn12  1  0.326392  0.652784  0.885144  1
  Sn  Sn13  1  0.669520  0.909990  0.252739  1
  Sn  Sn14  1  0.115014  0.230028  0.884486  1
  Sn  Sn15  1  0.631245  0.696264  0.394376  1
  Sn  Sn16  1  0.955013  0.342922  0.252288  1
  Sn  Sn17  1  0.759530  0.090010  0.747261  1
  Sn  Sn18  1  0.387909  0.342922  0.252288  1
  Sn  Sn19  1  0.673608  0.347216  0.114856  1
  Sn  Sn20  1  0.934981  0.303736  0.605624  1
  Sn  Sn21  1  0.065019  0.696264  0.394376  1
  Sn  Sn22  1  0.884986  0.769972  0.115514  1
  Sn  Sn23  1  0.368755  0.303736  0.605624  1
  Sn  Sn24  1  0.240470  0.909990  0.252739  1
