# generated using pymatgen
data_Li4Mn3O8
_symmetry_space_group_name_H-M   'P 1'
_cell_length_a   6.07526765
_cell_length_b   10.71079980
_cell_length_c   10.71229375
_cell_angle_alpha   31.13591292
_cell_angle_beta   28.23812908
_cell_angle_gamma   51.16881850
_symmetry_Int_Tables_number   1
_chemical_formula_structural   Li4Mn3O8
_chemical_formula_sum   'Li4 Mn3 O8'
_cell_volume   145.73353423
_cell_formula_units_Z   1
loop_
 _symmetry_equiv_pos_site_id
 _symmetry_equiv_pos_as_xyz
  1  'x, y, z'
loop_
 _atom_site_type_symbol
 _atom_site_label
 _atom_site_symmetry_multiplicity
 _atom_site_fract_x
 _atom_site_fract_y
 _atom_site_fract_z
 _atom_site_occupancy
  Li  Li1  1  0.000046  0.000069  0.000204  1
  Li  Li2  1  0.358488  0.358093  0.000089  1
  Li  Li3  1  0.499991  0.499116  0.999838  1
  Li  Li4  1  0.641840  0.640994  0.999824  1
  Mn  Mn5  1  0.500652  0.999917  0.000141  1
  Mn  Mn6  1  0.500635  0.499967  0.500079  1
  Mn  Mn7  1  0.500546  0.999923  0.500157  1
  O  O8  1  0.234414  0.233263  0.999474  1
  O  O9  1  0.220789  0.744551  0.999266  1
  O  O10  1  0.220691  0.219415  0.524468  1
  O  O11  1  0.270856  0.744486  0.474448  1
  O  O12  1  0.766725  0.766587  0.000786  1
  O  O13  1  0.781085  0.255112  0.000561  1
  O  O14  1  0.781103  0.780818  0.474871  1
  O  O15  1  0.730469  0.255302  0.525957  1
