# generated using pymatgen
data_NaTe
_symmetry_space_group_name_H-M   'P 1'
_cell_length_a   9.16653749
_cell_length_b   10.07873385
_cell_length_c   16.03327978
_cell_angle_alpha   90.00000000
_cell_angle_beta   90.00000000
_cell_angle_gamma   90.00000000
_symmetry_Int_Tables_number   1
_chemical_formula_structural   NaTe
_chemical_formula_sum   'Na24 Te24'
_cell_volume   1481.26808909
_cell_formula_units_Z   24
loop_
 _symmetry_equiv_pos_site_id
 _symmetry_equiv_pos_as_xyz
  1  'x, y, z'
loop_
 _atom_site_type_symbol
 _atom_site_label
 _atom_site_symmetry_multiplicity
 _atom_site_fract_x
 _atom_site_fract_y
 _atom_site_fract_z
 _atom_site_occupancy
  Na  Na1  1  0.725611  0.511916  0.810042  1
  Na  Na2  1  0.225611  0.988084  0.689958  1
  Na  Na3  1  0.774389  0.511916  0.189958  1
  Na  Na4  1  0.274389  0.988084  0.310042  1
  Na  Na5  1  0.274389  0.488084  0.189958  1
  Na  Na6  1  0.774389  0.011916  0.310042  1
  Na  Na7  1  0.225611  0.488084  0.810042  1
  Na  Na8  1  0.725611  0.011916  0.689958  1
  Na  Na9  1  0.940389  0.680243  0.971197  1
  Na  Na10  1  0.440389  0.819757  0.528803  1
  Na  Na11  1  0.559611  0.680243  0.028803  1
  Na  Na12  1  0.059611  0.819757  0.471197  1
  Na  Na13  1  0.059611  0.319757  0.028803  1
  Na  Na14  1  0.559611  0.180243  0.471197  1
  Na  Na15  1  0.440389  0.319757  0.971197  1
  Na  Na16  1  0.940389  0.180243  0.528803  1
  Na  Na17  1  0.757978  0.670470  0.613336  1
  Na  Na18  1  0.257978  0.829530  0.886664  1
  Na  Na19  1  0.742022  0.670470  0.386664  1
  Na  Na20  1  0.242022  0.829530  0.113336  1
  Na  Na21  1  0.242022  0.329530  0.386664  1
  Na  Na22  1  0.742022  0.170470  0.113336  1
  Na  Na23  1  0.257978  0.329530  0.613336  1
  Na  Na24  1  0.757978  0.170470  0.886664  1
  Te  Te25  1  0.750000  0.927754  0.500000  1
  Te  Te26  1  0.250000  0.572246  0.000000  1
  Te  Te27  1  0.250000  0.072246  0.500000  1
  Te  Te28  1  0.750000  0.427754  0.000000  1
  Te  Te29  1  0.511199  0.247261  0.253055  1
  Te  Te30  1  0.011199  0.252739  0.246945  1
  Te  Te31  1  0.988801  0.247261  0.746945  1
  Te  Te32  1  0.488801  0.252739  0.753055  1
  Te  Te33  1  0.488801  0.752739  0.746945  1
  Te  Te34  1  0.988801  0.747261  0.753055  1
  Te  Te35  1  0.011199  0.752739  0.253055  1
  Te  Te36  1  0.511199  0.747261  0.246945  1
  Te  Te37  1  0.307705  0.140679  0.132818  1
  Te  Te38  1  0.807705  0.359321  0.367182  1
  Te  Te39  1  0.192295  0.140679  0.867182  1
  Te  Te40  1  0.692295  0.359321  0.632818  1
  Te  Te41  1  0.692295  0.859321  0.867182  1
  Te  Te42  1  0.192295  0.640679  0.632818  1
  Te  Te43  1  0.807705  0.859321  0.132818  1
  Te  Te44  1  0.307705  0.640679  0.367182  1
  Te  Te45  1  0.000000  0.500000  0.500000  1
  Te  Te46  1  0.500000  0.000000  0.000000  1
  Te  Te47  1  0.500000  0.500000  0.500000  1
  Te  Te48  1  0.000000  0.000000  0.000000  1
