# generated using pymatgen
data_Li6MnO6
_symmetry_space_group_name_H-M   'P 1'
_cell_length_a   5.78081177
_cell_length_b   5.43492565
_cell_length_c   5.78187547
_cell_angle_alpha   121.75431654
_cell_angle_beta   119.84778230
_cell_angle_gamma   58.13931804
_symmetry_Int_Tables_number   1
_chemical_formula_structural   Li6MnO6
_chemical_formula_sum   'Li6 Mn1 O6'
_cell_volume   124.96292585
_cell_formula_units_Z   1
loop_
 _symmetry_equiv_pos_site_id
 _symmetry_equiv_pos_as_xyz
  1  'x, y, z'
loop_
 _atom_site_type_symbol
 _atom_site_label
 _atom_site_symmetry_multiplicity
 _atom_site_fract_x
 _atom_site_fract_y
 _atom_site_fract_z
 _atom_site_occupancy
  Li  Li1  1  0.284936  0.285387  0.492965  1
  Li  Li2  1  0.078463  0.713782  0.286085  1
  Li  Li3  1  0.495141  0.709059  0.922252  1
  Li  Li4  1  0.504859  0.290941  0.077748  1
  Li  Li5  1  0.921537  0.286218  0.713915  1
  Li  Li6  1  0.715064  0.714613  0.507035  1
  Mn  Mn7  1  0.000000  0.000000  0.000000  1
  O  O8  1  0.093500  0.757125  0.648009  1
  O  O9  1  0.201335  0.244415  0.090511  1
  O  O10  1  0.646105  0.238716  0.794682  1
  O  O11  1  0.353895  0.761284  0.205318  1
  O  O12  1  0.798665  0.755585  0.909489  1
  O  O13  1  0.906500  0.242875  0.351991  1
