# generated using pymatgen
data_LiMn4O8
_symmetry_space_group_name_H-M   'P 1'
_cell_length_a   5.88931335
_cell_length_b   5.88881608
_cell_length_c   5.88914124
_cell_angle_alpha   60.00663352
_cell_angle_beta   60.00958527
_cell_angle_gamma   60.00704634
_symmetry_Int_Tables_number   1
_chemical_formula_structural   LiMn4O8
_chemical_formula_sum   'Li1 Mn4 O8'
_cell_volume   144.44615125
_cell_formula_units_Z   1
loop_
 _symmetry_equiv_pos_site_id
 _symmetry_equiv_pos_as_xyz
  1  'x, y, z'
loop_
 _atom_site_type_symbol
 _atom_site_label
 _atom_site_symmetry_multiplicity
 _atom_site_fract_x
 _atom_site_fract_y
 _atom_site_fract_z
 _atom_site_occupancy
  Li  Li1  1  0.875009  0.874999  0.875002  1
  Mn  Mn2  1  0.002523  0.499152  0.499156  1
  Mn  Mn3  1  0.499155  0.002500  0.499155  1
  Mn  Mn4  1  0.499188  0.499199  0.499190  1
  Mn  Mn5  1  0.499154  0.499148  0.002521  1
  O  O6  1  0.264773  0.264787  0.264781  1
  O  O7  1  0.264798  0.264812  0.705567  1
  O  O8  1  0.264788  0.705616  0.264792  1
  O  O9  1  0.705555  0.264815  0.264808  1
  O  O10  1  0.290564  0.736477  0.736481  1
  O  O11  1  0.736487  0.736478  0.290554  1
  O  O12  1  0.736496  0.290520  0.736491  1
  O  O13  1  0.736510  0.736498  0.736503  1
