# generated using pymatgen
data_NaSn
_symmetry_space_group_name_H-M   'P 1'
_cell_length_a   10.48155114
_cell_length_b   10.48155108
_cell_length_c   11.50931409
_cell_angle_alpha   117.08750896
_cell_angle_beta   117.08750837
_cell_angle_gamma   89.99999995
_symmetry_Int_Tables_number   1
_chemical_formula_structural   NaSn
_chemical_formula_sum   'Na16 Sn16'
_cell_volume   967.37307834
_cell_formula_units_Z   16
loop_
 _symmetry_equiv_pos_site_id
 _symmetry_equiv_pos_as_xyz
  1  'x, y, z'
loop_
 _atom_site_type_symbol
 _atom_site_label
 _atom_site_symmetry_multiplicity
 _atom_site_fract_x
 _atom_site_fract_y
 _atom_site_fract_z
 _atom_site_occupancy
  Na  Na1  1  0.368912  0.750000  0.500000  1
  Na  Na2  1  1.001696  0.498304  0.750000  1
  Na  Na3  1  0.501696  0.251696  0.750000  1
  Na  Na4  1  -0.001696  0.501696  0.250000  1
  Na  Na5  1  0.248304  -0.001696  0.750000  1
  Na  Na6  1  0.250000  0.868912  0.000000  1
  Na  Na7  1  0.498304  0.748304  0.250000  1
  Na  Na8  1  0.750000  0.131088  1.000000  1
  Na  Na9  1  0.750000  0.631088  1.000000  1
  Na  Na10  1  0.751696  1.001696  0.250000  1
  Na  Na11  1  0.251696  0.248304  0.250000  1
  Na  Na12  1  0.131088  0.250000  0.500000  1
  Na  Na13  1  0.250000  0.368912  0.000000  1
  Na  Na14  1  0.748304  0.751696  0.750000  1
  Na  Na15  1  0.868912  0.750000  0.500000  1
  Na  Na16  1  0.631088  0.250000  0.500000  1
  Sn  Sn17  1  0.005136  0.058713  0.872455  1
  Sn  Sn18  1  0.313742  0.005136  0.372455  1
  Sn  Sn19  1  0.558713  0.505136  0.372455  1
  Sn  Sn20  1  0.505136  0.813742  0.872455  1
  Sn  Sn21  1  0.632681  0.441287  0.127545  1
  Sn  Sn22  1  0.994864  0.941287  0.127545  1
  Sn  Sn23  1  0.186258  0.632681  0.627545  1
  Sn  Sn24  1  0.132681  0.686258  0.127545  1
  Sn  Sn25  1  0.367319  0.558713  0.872455  1
  Sn  Sn26  1  0.494864  0.186258  0.127545  1
  Sn  Sn27  1  0.813742  0.367319  0.372455  1
  Sn  Sn28  1  0.441287  0.494864  0.627545  1
  Sn  Sn29  1  0.867319  0.313742  0.872455  1
  Sn  Sn30  1  0.686258  0.994864  0.627545  1
  Sn  Sn31  1  0.941287  0.132681  0.627545  1
  Sn  Sn32  1  0.058713  0.867319  0.372455  1
