# generated using pymatgen
data_KBi
_symmetry_space_group_name_H-M   'P 1'
_cell_length_a   7.41583062
_cell_length_b   13.72149972
_cell_length_c   14.56611602
_cell_angle_alpha   113.37553115
_cell_angle_beta   90.00000000
_cell_angle_gamma   90.00000000
_symmetry_Int_Tables_number   1
_chemical_formula_structural   KBi
_chemical_formula_sum   'K16 Bi16'
_cell_volume   1360.54196932
_cell_formula_units_Z   16
loop_
 _symmetry_equiv_pos_site_id
 _symmetry_equiv_pos_as_xyz
  1  'x, y, z'
loop_
 _atom_site_type_symbol
 _atom_site_label
 _atom_site_symmetry_multiplicity
 _atom_site_fract_x
 _atom_site_fract_y
 _atom_site_fract_z
 _atom_site_occupancy
  K  K1  1  0.139475  0.554001  0.848755  1
  K  K2  1  0.639475  0.945999  0.151245  1
  K  K3  1  0.860525  0.445999  0.151245  1
  K  K4  1  0.360525  0.054001  0.848755  1
  K  K5  1  0.427819  0.691768  0.653845  1
  K  K6  1  0.927819  0.808232  0.346155  1
  K  K7  1  0.572181  0.308232  0.346155  1
  K  K8  1  0.072181  0.191768  0.653845  1
  K  K9  1  0.198688  0.539078  0.395288  1
  K  K10  1  0.698688  0.960922  0.604712  1
  K  K11  1  0.801312  0.460922  0.604712  1
  K  K12  1  0.301312  0.039078  0.395288  1
  K  K13  1  0.382250  0.647290  0.120133  1
  K  K14  1  0.882250  0.852710  0.879867  1
  K  K15  1  0.617750  0.352710  0.879867  1
  K  K16  1  0.117750  0.147290  0.120133  1
  Bi  Bi17  1  0.202699  0.886980  0.578488  1
  Bi  Bi18  1  0.702699  0.613020  0.421512  1
  Bi  Bi19  1  0.797301  0.113020  0.421512  1
  Bi  Bi20  1  0.297301  0.386979  0.578488  1
  Bi  Bi21  1  0.435701  0.773303  0.392959  1
  Bi  Bi22  1  0.935701  0.726697  0.607041  1
  Bi  Bi23  1  0.564299  0.226697  0.607041  1
  Bi  Bi24  1  0.064299  0.273303  0.392959  1
  Bi  Bi25  1  0.128090  0.870854  0.110458  1
  Bi  Bi26  1  0.628090  0.629146  0.889542  1
  Bi  Bi27  1  0.871910  0.129146  0.889542  1
  Bi  Bi28  1  0.371910  0.370854  0.110458  1
  Bi  Bi29  1  0.871102  0.683218  0.073761  1
  Bi  Bi30  1  0.371102  0.816782  0.926239  1
  Bi  Bi31  1  0.128898  0.316782  0.926239  1
  Bi  Bi32  1  0.628898  0.183218  0.073761  1
