# generated using pymatgen
data_Li3MnO4
_symmetry_space_group_name_H-M   'P 1'
_cell_length_a   5.08478533
_cell_length_b   10.19265189
_cell_length_c   9.77349052
_cell_angle_alpha   16.25605971
_cell_angle_beta   29.44616257
_cell_angle_gamma   33.33149531
_symmetry_Int_Tables_number   1
_chemical_formula_structural   Li3MnO4
_chemical_formula_sum   'Li3 Mn1 O4'
_cell_volume   69.70657128
_cell_formula_units_Z   1
loop_
 _symmetry_equiv_pos_site_id
 _symmetry_equiv_pos_as_xyz
  1  'x, y, z'
loop_
 _atom_site_type_symbol
 _atom_site_label
 _atom_site_symmetry_multiplicity
 _atom_site_fract_x
 _atom_site_fract_y
 _atom_site_fract_z
 _atom_site_occupancy
  Li  Li1  1  0.990995  0.994824  0.009955  1
  Li  Li2  1  0.996920  0.513938  0.986242  1
  Li  Li3  1  0.502333  0.010306  0.488483  1
  Mn  Mn4  1  0.498821  0.503456  0.495871  1
  O  O5  1  0.280366  0.001509  0.219574  1
  O  O6  1  0.186924  0.504736  0.265395  1
  O  O7  1  0.720988  0.004780  0.770415  1
  O  O8  1  0.807774  0.502442  0.727839  1
