# generated using pymatgen
data_LiMn2O4
_symmetry_space_group_name_H-M   'P 1'
_cell_length_a   5.96152546
_cell_length_b   5.96152545
_cell_length_c   5.96152546
_cell_angle_alpha   59.99999997
_cell_angle_beta   59.99999998
_cell_angle_gamma   60.00000001
_symmetry_Int_Tables_number   1
_chemical_formula_structural   LiMn2O4
_chemical_formula_sum   'Li2 Mn4 O8'
_cell_volume   149.81565954
_cell_formula_units_Z   2
loop_
 _symmetry_equiv_pos_site_id
 _symmetry_equiv_pos_as_xyz
  1  'x, y, z'
loop_
 _atom_site_type_symbol
 _atom_site_label
 _atom_site_symmetry_multiplicity
 _atom_site_fract_x
 _atom_site_fract_y
 _atom_site_fract_z
 _atom_site_occupancy
  Li  Li1  1  0.125000  0.125000  0.125000  1
  Li  Li2  1  0.875000  0.875000  0.875000  1
  O  O3  1  0.263213  0.263213  0.710360  1
  O  O4  1  0.736787  0.736787  0.736787  1
  O  O5  1  0.736787  0.736787  0.289640  1
  O  O6  1  0.263213  0.710360  0.263213  1
  O  O7  1  0.263213  0.263213  0.263213  1
  O  O8  1  0.289640  0.736787  0.736787  1
  O  O9  1  0.736787  0.289640  0.736787  1
  O  O10  1  0.710360  0.263213  0.263213  1
  Mn  Mn11  1  0.500000  0.500000  0.500000  1
  Mn  Mn12  1  0.500000  0.000000  0.500000  1
  Mn  Mn13  1  0.000000  0.500000  0.500000  1
  Mn  Mn14  1  0.500000  0.500000  0.000000  1
