# generated using pymatgen
data_Li3Mn3O8
_symmetry_space_group_name_H-M   'P 1'
_cell_length_a   5.78866208
_cell_length_b   5.78885517
_cell_length_c   9.94500810
_cell_angle_alpha   90.00395236
_cell_angle_beta   89.99836763
_cell_angle_gamma   120.00123963
_symmetry_Int_Tables_number   1
_chemical_formula_structural   Li3Mn3O8
_chemical_formula_sum   'Li6 Mn6 O16'
_cell_volume   288.60325739
_cell_formula_units_Z   2
loop_
 _symmetry_equiv_pos_site_id
 _symmetry_equiv_pos_as_xyz
  1  'x, y, z'
loop_
 _atom_site_type_symbol
 _atom_site_label
 _atom_site_symmetry_multiplicity
 _atom_site_fract_x
 _atom_site_fract_y
 _atom_site_fract_z
 _atom_site_occupancy
  Li  Li1  1  0.333438  0.666639  0.504595  1
  Li  Li2  1  0.333208  0.666613  0.889791  1
  Li  Li3  1  0.000128  0.000104  0.997376  1
  Li  Li4  1  0.999882  0.999981  0.497456  1
  Li  Li5  1  0.666558  0.333200  0.004472  1
  Li  Li6  1  0.666797  0.333411  0.389872  1
  Mn  Mn7  1  0.167598  0.832437  0.214053  1
  Mn  Mn8  1  0.167607  0.335215  0.214069  1
  Mn  Mn9  1  0.664851  0.832438  0.214046  1
  Mn  Mn10  1  0.335191  0.167608  0.714080  1
  Mn  Mn11  1  0.832379  0.664799  0.714086  1
  Mn  Mn12  1  0.832372  0.167619  0.714102  1
  O  O13  1  0.155328  0.844640  0.611725  1
  O  O14  1  0.030770  0.515411  0.320464  1
  O  O15  1  0.333352  0.666679  0.109103  1
  O  O16  1  0.000016  0.000034  0.314315  1
  O  O17  1  0.999984  0.000019  0.814312  1
  O  O18  1  0.155328  0.310719  0.611730  1
  O  O19  1  0.484602  0.969253  0.320431  1
  O  O20  1  0.484619  0.515379  0.320437  1
  O  O21  1  0.310719  0.155374  0.111693  1
  O  O22  1  0.689319  0.844674  0.611679  1
  O  O23  1  0.515385  0.484664  0.820439  1
  O  O24  1  0.515369  0.030735  0.820446  1
  O  O25  1  0.666645  0.333323  0.609113  1
  O  O26  1  0.844651  0.689267  0.111741  1
  O  O27  1  0.969254  0.484652  0.820472  1
  O  O28  1  0.844649  0.155414  0.111745  1
