# generated using pymatgen
data_Li5Mn4O8
_symmetry_space_group_name_H-M   'P 1'
_cell_length_a   6.32812726
_cell_length_b   6.32832699
_cell_length_c   10.08675298
_cell_angle_alpha   89.98845865
_cell_angle_beta   90.00030291
_cell_angle_gamma   54.65414358
_symmetry_Int_Tables_number   1
_chemical_formula_structural   Li5Mn4O8
_chemical_formula_sum   'Li10 Mn8 O16'
_cell_volume   329.48265401
_cell_formula_units_Z   2
loop_
 _symmetry_equiv_pos_site_id
 _symmetry_equiv_pos_as_xyz
  1  'x, y, z'
loop_
 _atom_site_type_symbol
 _atom_site_label
 _atom_site_symmetry_multiplicity
 _atom_site_fract_x
 _atom_site_fract_y
 _atom_site_fract_z
 _atom_site_occupancy
  Li  Li1  1  0.375145  0.813322  0.939029  1
  Li  Li2  1  0.658912  0.658194  0.726500  1
  Li  Li3  1  0.793879  0.791988  0.940803  1
  Li  Li4  1  0.810981  0.375303  0.939165  1
  Li  Li5  1  0.186228  0.625949  0.438819  1
  Li  Li6  1  0.340884  0.341582  0.226495  1
  Li  Li7  1  0.624410  0.189596  0.438888  1
  Li  Li8  1  0.207786  0.207634  0.441511  1
  Li  Li9  1  0.973450  0.972372  0.018524  1
  Li  Li10  1  0.027447  0.026823  0.518383  1
  Mn  Mn11  1  0.680365  0.680837  0.472942  1
  Mn  Mn12  1  0.319480  0.319091  0.972920  1
  Mn  Mn13  1  0.822111  0.823244  0.212978  1
  Mn  Mn14  1  0.331281  0.829478  0.215402  1
  Mn  Mn15  1  0.830348  0.331000  0.215464  1
  Mn  Mn16  1  0.170506  0.668723  0.715249  1
  Mn  Mn17  1  0.669017  0.169803  0.715281  1
  Mn  Mn18  1  0.177343  0.177241  0.712936  1
  O  O19  1  0.870982  0.870162  0.592624  1
  O  O20  1  0.519710  0.000112  0.333504  1
  O  O21  1  0.349735  0.876677  0.594783  1
  O  O22  1  0.636813  0.636972  0.096429  1
  O  O23  1  0.998830  0.519539  0.333136  1
  O  O24  1  0.514324  0.514319  0.328117  1
  O  O25  1  0.122283  0.650043  0.094591  1
  O  O26  1  0.876596  0.349330  0.594638  1
  O  O27  1  0.485804  0.485581  0.827927  1
  O  O28  1  0.000568  0.479542  0.833351  1
  O  O29  1  0.363065  0.363103  0.596209  1
  O  O30  1  0.650607  0.124249  0.094868  1
  O  O31  1  0.480990  0.000503  0.832980  1
  O  O32  1  0.130096  0.128820  0.092689  1
  O  O33  1  0.982560  0.981895  0.828905  1
  O  O34  1  0.017785  0.016942  0.328853  1
