# generated using pymatgen
data_LiMn7O12
_symmetry_space_group_name_H-M   'P 1'
_cell_length_a   6.42336668
_cell_length_b   6.42324857
_cell_length_c   6.42343765
_cell_angle_alpha   109.47012323
_cell_angle_beta   109.47143581
_cell_angle_gamma   109.47121722
_symmetry_Int_Tables_number   1
_chemical_formula_structural   LiMn7O12
_chemical_formula_sum   'Li1 Mn7 O12'
_cell_volume   204.01768372
_cell_formula_units_Z   1
loop_
 _symmetry_equiv_pos_site_id
 _symmetry_equiv_pos_as_xyz
  1  'x, y, z'
loop_
 _atom_site_type_symbol
 _atom_site_label
 _atom_site_symmetry_multiplicity
 _atom_site_fract_x
 _atom_site_fract_y
 _atom_site_fract_z
 _atom_site_occupancy
  Li  Li1  1  0.000000  0.000002  0.000001  1
  Mn  Mn2  1  0.499995  0.999994  -0.000000  1
  Mn  Mn3  1  0.500002  0.499989  0.999990  1
  Mn  Mn4  1  0.499995  0.999988  0.500000  1
  Mn  Mn5  1  -0.000000  0.500005  0.000003  1
  Mn  Mn6  1  0.000005  0.000006  0.499995  1
  Mn  Mn7  1  0.500003  0.500002  0.500000  1
  Mn  Mn8  1  0.999995  0.500001  0.500003  1
  O  O9  1  0.817720  0.128635  0.310913  1
  O  O10  1  0.871377  0.689096  0.182282  1
  O  O11  1  0.493187  0.310906  0.182277  1
  O  O12  1  0.310917  0.182284  0.493194  1
  O  O13  1  0.689099  0.182283  0.871379  1
  O  O14  1  0.817722  0.506817  0.689089  1
  O  O15  1  0.182277  0.493186  0.310913  1
  O  O16  1  0.310900  0.817719  0.128622  1
  O  O17  1  0.689087  0.817718  0.506808  1
  O  O18  1  0.128625  0.310907  0.817720  1
  O  O19  1  0.506815  0.689095  0.817724  1
  O  O20  1  0.182279  0.871368  0.689088  1
