# generated using pymatgen
data_LiMn3O6
_symmetry_space_group_name_H-M   'P 1'
_cell_length_a   5.95297608
_cell_length_b   5.92704005
_cell_length_c   13.15331897
_cell_angle_alpha   102.89562598
_cell_angle_beta   103.22735776
_cell_angle_gamma   88.34825956
_symmetry_Int_Tables_number   1
_chemical_formula_structural   LiMn3O6
_chemical_formula_sum   'Li4 Mn12 O24'
_cell_volume   440.26717530
_cell_formula_units_Z   4
loop_
 _symmetry_equiv_pos_site_id
 _symmetry_equiv_pos_as_xyz
  1  'x, y, z'
loop_
 _atom_site_type_symbol
 _atom_site_label
 _atom_site_symmetry_multiplicity
 _atom_site_fract_x
 _atom_site_fract_y
 _atom_site_fract_z
 _atom_site_occupancy
  Li  Li1  1  0.870176  0.614664  0.245558  1
  Li  Li2  1  0.467021  0.714864  0.419593  1
  Li  Li3  1  0.119955  0.374906  0.751015  1
  Li  Li4  1  0.212058  0.969090  0.918994  1
  Mn  Mn5  1  0.995579  0.493819  0.000342  1
  Mn  Mn6  1  0.497105  0.493989  0.996776  1
  Mn  Mn7  1  0.339644  0.838032  0.163516  1
  Mn  Mn8  1  0.344188  0.337291  0.167847  1
  Mn  Mn9  1  0.666005  0.161564  0.330644  1
  Mn  Mn10  1  0.160581  0.161883  0.328605  1
  Mn  Mn11  1  0.996071  0.494362  0.501766  1
  Mn  Mn12  1  0.990245  0.995638  0.497271  1
  Mn  Mn13  1  0.334249  0.843772  0.668079  1
  Mn  Mn14  1  0.836149  0.845178  0.671755  1
  Mn  Mn15  1  0.659582  0.168499  0.834319  1
  Mn  Mn16  1  0.665058  0.666416  0.834122  1
  O  O17  1  0.274043  0.740660  0.010588  1
  O  O18  1  0.257716  0.287595  0.011185  1
  O  O19  1  0.553295  0.575818  0.154504  1
  O  O20  1  0.122314  0.589318  0.161749  1
  O  O21  1  0.559900  0.083599  0.175224  1
  O  O22  1  0.134659  0.097122  0.171390  1
  O  O23  1  0.436316  0.396489  0.320328  1
  O  O24  1  0.414219  0.941196  0.321813  1
  O  O25  1  0.904894  0.368084  0.326708  1
  O  O26  1  0.895688  0.924158  0.344282  1
  O  O27  1  0.196208  0.230996  0.486868  1
  O  O28  1  0.766548  0.236390  0.484969  1
  O  O29  1  0.225697  0.757249  0.511054  1
  O  O30  1  0.784495  0.757153  0.514556  1
  O  O31  1  0.072254  0.056794  0.655192  1
  O  O32  1  0.091383  0.633781  0.673347  1
  O  O33  1  0.594409  0.636113  0.679010  1
  O  O34  1  0.584314  0.060850  0.676407  1
  O  O35  1  0.889498  0.931577  0.825269  1
  O  O36  1  0.431000  0.929081  0.822184  1
  O  O37  1  0.433054  0.408753  0.843162  1
  O  O38  1  0.886778  0.400592  0.840308  1
  O  O39  1  0.713942  0.254501  0.985707  1
  O  O40  1  0.736075  0.697649  0.988125  1
