# generated using pymatgen
data_K5Sb4
_symmetry_space_group_name_H-M   'P 1'
_cell_length_a   5.53623831
_cell_length_b   6.86553021
_cell_length_c   11.16903100
_cell_angle_alpha   74.28132210
_cell_angle_beta   75.65034013
_cell_angle_gamma   66.22219214
_symmetry_Int_Tables_number   1
_chemical_formula_structural   K5Sb4
_chemical_formula_sum   'K5 Sb4'
_cell_volume   369.30386775
_cell_formula_units_Z   1
loop_
 _symmetry_equiv_pos_site_id
 _symmetry_equiv_pos_as_xyz
  1  'x, y, z'
loop_
 _atom_site_type_symbol
 _atom_site_label
 _atom_site_symmetry_multiplicity
 _atom_site_fract_x
 _atom_site_fract_y
 _atom_site_fract_z
 _atom_site_occupancy
  K  K1  1  0.899606  0.809452  0.391336  1
  K  K2  1  0.100394  0.190548  0.608664  1
  K  K3  1  0.245226  0.343610  0.165937  1
  K  K4  1  0.754774  0.656390  0.834063  1
  K  K5  1  0.000000  0.000000  0.000000  1
  Sb  Sb6  1  0.543912  0.736280  0.175896  1
  Sb  Sb7  1  0.456088  0.263720  0.824104  1
  Sb  Sb8  1  0.604752  0.398850  0.391647  1
  Sb  Sb9  1  0.395248  0.601150  0.608353  1
