# generated using pymatgen
data_LiMn4O8
_symmetry_space_group_name_H-M   'P 1'
_cell_length_a   5.70683373
_cell_length_b   5.70667517
_cell_length_c   9.48908306
_cell_angle_alpha   89.64778778
_cell_angle_beta   89.63082725
_cell_angle_gamma   117.58736669
_symmetry_Int_Tables_number   1
_chemical_formula_structural   LiMn4O8
_chemical_formula_sum   'Li2 Mn8 O16'
_cell_volume   273.87607973
_cell_formula_units_Z   2
loop_
 _symmetry_equiv_pos_site_id
 _symmetry_equiv_pos_as_xyz
  1  'x, y, z'
loop_
 _atom_site_type_symbol
 _atom_site_label
 _atom_site_symmetry_multiplicity
 _atom_site_fract_x
 _atom_site_fract_y
 _atom_site_fract_z
 _atom_site_occupancy
  Li  Li1  1  0.370925  0.874212  0.075019  1
  Li  Li2  1  0.624135  0.620869  0.574960  1
  Mn  Mn3  1  0.872699  0.882561  0.863549  1
  Mn  Mn4  1  0.368734  0.379084  0.864959  1
  Mn  Mn5  1  0.117626  0.132595  0.138888  1
  Mn  Mn6  1  0.647019  0.606952  0.139804  1
  Mn  Mn7  1  0.356948  0.896997  0.639814  1
  Mn  Mn8  1  0.882720  0.367664  0.638940  1
  Mn  Mn9  1  0.632434  0.122643  0.363196  1
  Mn  Mn10  1  0.129259  0.618838  0.364635  1
  O  O11  1  0.223702  0.029719  0.788028  1
  O  O12  1  0.721676  0.530071  0.776746  1
  O  O13  1  0.765793  0.981285  0.216776  1
  O  O14  1  0.277080  0.485697  0.214473  1
  O  O15  1  0.731216  0.015775  0.716548  1
  O  O16  1  0.235688  0.527062  0.714187  1
  O  O17  1  0.280218  0.971881  0.276910  1
  O  O18  1  0.779897  0.473920  0.288203  1
  O  O19  1  0.533299  0.715680  0.963108  1
  O  O20  1  0.021727  0.229485  0.959822  1
  O  O21  1  0.452938  0.249610  0.038537  1
  O  O22  1  0.990393  0.788990  0.045875  1
  O  O23  1  0.465623  0.783311  0.462878  1
  O  O24  1  0.979289  0.271558  0.459497  1
  O  O25  1  0.539222  0.240447  0.545572  1
  O  O26  1  -0.000303  0.703036  0.538272  1
