# generated using pymatgen
data_Li13Mn8O24
_symmetry_space_group_name_H-M   'P 1'
_cell_length_a   4.98006870
_cell_length_b   4.98004950
_cell_length_c   19.42700364
_cell_angle_alpha   85.36546117
_cell_angle_beta   94.63064378
_cell_angle_gamma   60.31952101
_symmetry_Int_Tables_number   1
_chemical_formula_structural   Li13Mn8O24
_chemical_formula_sum   'Li13 Mn8 O24'
_cell_volume   413.15151448
_cell_formula_units_Z   1
loop_
 _symmetry_equiv_pos_site_id
 _symmetry_equiv_pos_as_xyz
  1  'x, y, z'
loop_
 _atom_site_type_symbol
 _atom_site_label
 _atom_site_symmetry_multiplicity
 _atom_site_fract_x
 _atom_site_fract_y
 _atom_site_fract_z
 _atom_site_occupancy
  Li  Li1  1  0.007674  0.493318  0.499623  1
  Li  Li2  1  0.248740  0.258333  0.873908  1
  Li  Li3  1  0.993429  0.507436  0.000411  1
  Li  Li4  1  0.504327  0.003380  0.750023  1
  Li  Li5  1  0.150759  0.653603  0.249654  1
  Li  Li6  1  0.499916  0.000067  0.249910  1
  Li  Li7  1  0.346015  0.839555  0.999733  1
  Li  Li8  1  0.654152  0.160230  0.500273  1
  Li  Li9  1  0.337317  0.848407  0.499845  1
  Li  Li10  1  0.662189  0.151828  0.000161  1
  Li  Li11  1  0.844111  0.341144  0.750212  1
  Li  Li12  1  0.758691  0.748519  0.626111  1
  Li  Li13  1  0.849128  0.346415  0.250184  1
  Mn  Mn14  1  0.079770  0.081465  0.625172  1
  Mn  Mn15  1  0.082971  0.082374  0.125027  1
  Mn  Mn16  1  0.411274  0.420323  0.625506  1
  Mn  Mn17  1  0.418027  0.417323  0.125011  1
  Mn  Mn18  1  0.581411  0.579540  0.874860  1
  Mn  Mn19  1  0.582032  0.582671  0.374991  1
  Mn  Mn20  1  0.920293  0.911035  0.874516  1
  Mn  Mn21  1  0.916832  0.917541  0.374993  1
  O  O22  1  0.143839  0.347417  0.680520  1
  O  O23  1  0.353525  0.145181  0.567222  1
  O  O24  1  0.160381  0.339847  0.183438  1
  O  O25  1  0.285869  0.566075  0.931622  1
  O  O26  1  0.066166  0.786020  0.568381  1
  O  O27  1  0.338219  0.161830  0.066975  1
  O  O28  1  0.217759  0.931384  0.821527  1
  O  O29  1  0.286162  0.586243  0.432120  1
  O  O30  1  0.086315  0.786513  0.067885  1
  O  O31  1  0.581730  0.275500  0.820258  1
  O  O32  1  0.431554  0.717733  0.678487  1
  O  O33  1  0.214019  0.912725  0.317896  1
  O  O34  1  0.775723  0.081656  0.679762  1
  O  O35  1  0.587221  0.285650  0.317916  1
  O  O36  1  0.412752  0.714311  0.182086  1
  O  O37  1  0.929145  0.211970  0.931269  1
  O  O38  1  0.712319  0.429128  0.568796  1
  O  O39  1  0.786051  0.087291  0.182130  1
  O  O40  1  0.645136  0.853322  0.932806  1
  O  O41  1  0.913612  0.213554  0.432150  1
  O  O42  1  0.713862  0.413723  0.067887  1
  O  O43  1  0.847564  0.643426  0.819531  1
  O  O44  1  0.661482  0.838031  0.433020  1
  O  O45  1  0.839671  0.660017  0.316587  1
