# generated using pymatgen
data_Li3Mn4O8
_symmetry_space_group_name_H-M   'P 1'
_cell_length_a   5.73872272
_cell_length_b   5.90672217
_cell_length_c   10.01943497
_cell_angle_alpha   84.72689094
_cell_angle_beta   89.99862679
_cell_angle_gamma   60.93458310
_symmetry_Int_Tables_number   1
_chemical_formula_structural   Li3Mn4O8
_chemical_formula_sum   'Li6 Mn8 O16'
_cell_volume   295.21311736
_cell_formula_units_Z   2
loop_
 _symmetry_equiv_pos_site_id
 _symmetry_equiv_pos_as_xyz
  1  'x, y, z'
loop_
 _atom_site_type_symbol
 _atom_site_label
 _atom_site_symmetry_multiplicity
 _atom_site_fract_x
 _atom_site_fract_y
 _atom_site_fract_z
 _atom_site_occupancy
  Li  Li1  1  0.481922  0.499515  0.000005  1
  Li  Li2  1  0.518088  0.500491  0.499893  1
  Li  Li3  1  0.018444  0.499524  0.000040  1
  Li  Li4  1  0.981496  0.500539  0.499937  1
  Li  Li5  1  0.500095  0.000003  0.250067  1
  Li  Li6  1  0.999945  0.999973  0.749968  1
  Mn  Mn7  1  0.500119  0.499642  0.750078  1
  Mn  Mn8  1  0.499830  0.500160  0.249703  1
  Mn  Mn9  1  0.999935  0.499723  0.750180  1
  Mn  Mn10  1  0.999834  0.500114  0.250024  1
  Mn  Mn11  1  0.516103  0.967778  0.974107  1
  Mn  Mn12  1  0.483979  0.032218  0.526025  1
  Mn  Mn13  1  0.984120  0.031802  0.025687  1
  Mn  Mn14  1  0.015837  0.968799  0.474476  1
  O  O15  1  0.324397  0.351082  0.646199  1
  O  O16  1  0.322416  0.355097  0.149885  1
  O  O17  1  0.822243  0.355283  0.649895  1
  O  O18  1  0.824705  0.350619  0.146111  1
  O  O19  1  0.330290  0.821808  0.602369  1
  O  O20  1  0.348309  0.821241  0.102112  1
  O  O21  1  0.848298  0.821723  0.602355  1
  O  O22  1  0.830321  0.821265  0.102136  1
  O  O23  1  0.675432  0.648929  0.853934  1
  O  O24  1  0.677576  0.644802  0.349865  1
  O  O25  1  0.177571  0.644582  0.850137  1
  O  O26  1  0.175310  0.649469  0.353681  1
  O  O27  1  0.669805  0.178261  0.897696  1
  O  O28  1  0.651820  0.178701  0.397845  1
  O  O29  1  0.151823  0.178212  0.897712  1
  O  O30  1  0.169862  0.178797  0.397860  1
