# generated using pymatgen
data_LiMnO2
_symmetry_space_group_name_H-M   'P 1'
_cell_length_a   2.87324287
_cell_length_b   5.30166484
_cell_length_c   10.08612826
_cell_angle_alpha   90.00100139
_cell_angle_beta   90.02437503
_cell_angle_gamma   90.00041178
_symmetry_Int_Tables_number   1
_chemical_formula_structural   LiMnO2
_chemical_formula_sum   'Li4 Mn4 O8'
_cell_volume   153.64168249
_cell_formula_units_Z   4
loop_
 _symmetry_equiv_pos_site_id
 _symmetry_equiv_pos_as_xyz
  1  'x, y, z'
loop_
 _atom_site_type_symbol
 _atom_site_label
 _atom_site_symmetry_multiplicity
 _atom_site_fract_x
 _atom_site_fract_y
 _atom_site_fract_z
 _atom_site_occupancy
  Li  Li1  1  0.677888  0.602466  0.105659  1
  Li  Li2  1  0.176922  0.397486  0.894289  1
  Li  Li3  1  0.676318  0.897477  0.605699  1
  Li  Li4  1  0.175194  0.102460  0.394333  1
  Mn  Mn5  1  0.176906  0.106647  0.132425  1
  Mn  Mn6  1  0.676598  0.893431  0.867636  1
  Mn  Mn7  1  0.675871  0.606632  0.367588  1
  Mn  Mn8  1  0.176072  0.393357  0.632379  1
  O  O9  1  0.676942  0.953708  0.237741  1
  O  O10  1  0.176374  0.046395  0.762326  1
  O  O11  1  0.175821  0.453694  0.262267  1
  O  O12  1  0.676255  0.546355  0.737675  1
  O  O13  1  0.676770  0.245633  0.020468  1
  O  O14  1  0.176822  0.754314  0.979540  1
  O  O15  1  0.675882  0.254295  0.520445  1
  O  O16  1  0.176027  0.745644  0.479532  1
