# generated using pymatgen
data_Li9Mn14O32
_symmetry_space_group_name_H-M   'P 1'
_cell_length_a   5.87159713
_cell_length_b   5.87159713
_cell_length_c   19.43612177
_cell_angle_alpha   98.87988549
_cell_angle_beta   98.87988549
_cell_angle_gamma   59.92841663
_symmetry_Int_Tables_number   1
_chemical_formula_structural   Li9Mn14O32
_chemical_formula_sum   'Li9 Mn14 O32'
_cell_volume   570.60194098
_cell_formula_units_Z   1
loop_
 _symmetry_equiv_pos_site_id
 _symmetry_equiv_pos_as_xyz
  1  'x, y, z'
loop_
 _atom_site_type_symbol
 _atom_site_label
 _atom_site_symmetry_multiplicity
 _atom_site_fract_x
 _atom_site_fract_y
 _atom_site_fract_z
 _atom_site_occupancy
  Li  Li1  1  0.905263  0.905263  0.222632  1
  Li  Li2  1  0.600934  0.600934  0.282711  1
  Li  Li3  1  0.648372  0.648372  0.466329  1
  Li  Li4  1  0.124938  0.124938  0.375362  1
  Li  Li5  1  0.346011  0.346011  0.528191  1
  Li  Li6  1  0.750053  0.750053  0.749586  1
  Li  Li7  1  0.404833  0.404833  0.714405  1
  Li  Li8  1  0.094802  0.094802  0.785110  1
  Li  Li9  1  0.156204  0.156204  0.967650  1
  Mn  Mn10  1  0.500406  0.500406  0.000638  1
  Mn  Mn11  1  0.375295  0.874981  0.124948  1
  Mn  Mn12  1  0.874981  0.375295  0.124948  1
  Mn  Mn13  1  0.374285  0.374285  0.124529  1
  Mn  Mn14  1  0.125163  0.625282  0.375389  1
  Mn  Mn15  1  0.249812  0.249812  0.253375  1
  Mn  Mn16  1  0.625282  0.125163  0.375389  1
  Mn  Mn17  1  0.379227  0.873069  0.625448  1
  Mn  Mn18  1  0.873656  0.873656  0.625743  1
  Mn  Mn19  1  0.873069  0.379227  0.625448  1
  Mn  Mn20  1  0.000228  0.000228  0.497561  1
  Mn  Mn21  1  0.627615  0.627615  0.874404  1
  Mn  Mn22  1  0.118825  0.627595  0.874319  1
  Mn  Mn23  1  0.627595  0.118825  0.874319  1
  O  O24  1  0.667893  0.667893  0.065328  1
  O  O25  1  0.230227  0.669124  0.065935  1
  O  O26  1  0.669124  0.230227  0.065935  1
  O  O27  1  0.559417  0.559417  0.178816  1
  O  O28  1  0.434748  0.978471  0.310904  1
  O  O29  1  0.079098  0.525164  0.182492  1
  O  O30  1  0.188819  0.188819  0.070401  1
  O  O31  1  0.930725  0.930725  0.323557  1
  O  O32  1  0.080021  0.080021  0.185164  1
  O  O33  1  0.826934  0.826934  0.434399  1
  O  O34  1  0.272214  0.814858  0.439219  1
  O  O35  1  0.525164  0.079098  0.182492  1
  O  O36  1  0.422780  0.422780  0.315859  1
  O  O37  1  0.978471  0.434748  0.310904  1
  O  O38  1  0.168581  0.727280  0.566801  1
  O  O39  1  0.319141  0.319141  0.426930  1
  O  O40  1  0.814858  0.272214  0.439219  1
  O  O41  1  0.690826  0.690826  0.572172  1
  O  O42  1  0.573082  0.573082  0.677195  1
  O  O43  1  0.032548  0.571891  0.677246  1
  O  O44  1  0.727280  0.168581  0.566801  1
  O  O45  1  0.927820  0.927820  0.822838  1
  O  O46  1  0.168914  0.168914  0.565111  1
  O  O47  1  0.466597  0.927648  0.822824  1
  O  O48  1  0.927648  0.466597  0.822824  1
  O  O49  1  0.060120  0.060120  0.677808  1
  O  O50  1  0.809337  0.809337  0.926966  1
  O  O51  1  0.440426  0.440426  0.822401  1
  O  O52  1  0.571891  0.032548  0.677246  1
  O  O53  1  0.331241  0.772255  0.934879  1
  O  O54  1  0.331201  0.331201  0.934769  1
  O  O55  1  0.772255  0.331241  0.934879  1
