# generated using pymatgen
data_Li4Bi2O5
_symmetry_space_group_name_H-M   'P 1'
_cell_length_a   5.54080849
_cell_length_b   7.95685445
_cell_length_c   8.05254511
_cell_angle_alpha   86.94132806
_cell_angle_beta   110.91341588
_cell_angle_gamma   113.28768299
_symmetry_Int_Tables_number   1
_chemical_formula_structural   Li4Bi2O5
_chemical_formula_sum   'Li8 Bi4 O10'
_cell_volume   303.01278520
_cell_formula_units_Z   2
loop_
 _symmetry_equiv_pos_site_id
 _symmetry_equiv_pos_as_xyz
  1  'x, y, z'
loop_
 _atom_site_type_symbol
 _atom_site_label
 _atom_site_symmetry_multiplicity
 _atom_site_fract_x
 _atom_site_fract_y
 _atom_site_fract_z
 _atom_site_occupancy
  Li  Li1  1  0.044479  0.188751  0.528766  1
  Li  Li2  1  0.490769  0.010546  0.344683  1
  Li  Li3  1  0.449275  0.646409  0.662014  1
  Li  Li4  1  0.425217  0.328404  0.986944  1
  Li  Li5  1  0.574783  0.671596  0.013056  1
  Li  Li6  1  0.550725  0.353591  0.337986  1
  Li  Li7  1  0.509231  0.989454  0.655317  1
  Li  Li8  1  0.955521  0.811249  0.471234  1
  Bi  Bi9  1  0.102452  0.877020  0.878814  1
  Bi  Bi10  1  0.161992  0.599251  0.247623  1
  Bi  Bi11  1  0.838008  0.400749  0.752377  1
  Bi  Bi12  1  0.897548  0.122980  0.121186  1
  O  O13  1  0.276036  0.483372  0.822091  1
  O  O14  1  0.196035  0.353927  0.358097  1
  O  O15  1  0.226528  0.056393  0.702437  1
  O  O16  1  0.293696  0.783782  0.467984  1
  O  O17  1  0.713074  0.883403  0.873737  1
  O  O18  1  0.286926  0.116597  0.126263  1
  O  O19  1  0.706304  0.216218  0.532016  1
  O  O20  1  0.773472  0.943607  0.297563  1
  O  O21  1  0.803965  0.646073  0.641903  1
  O  O22  1  0.723964  0.516628  0.177909  1
