# generated using pymatgen
data_LiMnO2
_symmetry_space_group_name_H-M   'P 1'
_cell_length_a   5.93806611
_cell_length_b   7.89255441
_cell_length_c   5.19924377
_cell_angle_alpha   29.12392917
_cell_angle_beta   55.17645617
_cell_angle_gamma   41.20451293
_symmetry_Int_Tables_number   1
_chemical_formula_structural   LiMnO2
_chemical_formula_sum   'Li2 Mn2 O4'
_cell_volume   75.24804064
_cell_formula_units_Z   2
loop_
 _symmetry_equiv_pos_site_id
 _symmetry_equiv_pos_as_xyz
  1  'x, y, z'
loop_
 _atom_site_type_symbol
 _atom_site_label
 _atom_site_symmetry_multiplicity
 _atom_site_fract_x
 _atom_site_fract_y
 _atom_site_fract_z
 _atom_site_occupancy
  Li  Li1  1  0.249997  0.500000  0.000000  1
  Li  Li2  1  0.500003  0.000000  0.000000  1
  Mn  Mn3  1  1.000040  0.000000  0.000000  1
  Mn  Mn4  1  0.749960  0.500000  0.000000  1
  O  O5  1  0.232052  1.000010  0.535863  1
  O  O6  1  0.767935  -0.000010  0.464137  1
  O  O7  1  0.517948  0.499990  0.464137  1
  O  O8  1  0.982065  0.500010  0.535863  1
