# generated using pymatgen
data_Li8Mn9O18
_symmetry_space_group_name_H-M   'P 1'
_cell_length_a   6.54537945
_cell_length_b   6.54711208
_cell_length_c   16.38282494
_cell_angle_alpha   94.50465440
_cell_angle_beta   94.43333411
_cell_angle_gamma   82.53534379
_symmetry_Int_Tables_number   1
_chemical_formula_structural   Li8Mn9O18
_chemical_formula_sum   'Li16 Mn18 O36'
_cell_volume   692.35796430
_cell_formula_units_Z   2
loop_
 _symmetry_equiv_pos_site_id
 _symmetry_equiv_pos_as_xyz
  1  'x, y, z'
loop_
 _atom_site_type_symbol
 _atom_site_label
 _atom_site_symmetry_multiplicity
 _atom_site_fract_x
 _atom_site_fract_y
 _atom_site_fract_z
 _atom_site_occupancy
  Li  Li1  1  0.912178  0.584046  0.247868  1
  Li  Li2  1  0.915613  0.575700  0.580671  1
  Li  Li3  1  0.919468  0.591047  0.922151  1
  Li  Li4  1  0.734768  0.753391  0.413758  1
  Li  Li5  1  0.752174  0.752263  0.747367  1
  Li  Li6  1  0.581583  0.918445  0.253134  1
  Li  Li7  1  0.572022  0.912453  0.574683  1
  Li  Li8  1  0.592130  0.919551  0.923461  1
  Li  Li9  1  0.432065  0.070954  0.086370  1
  Li  Li10  1  0.254325  0.247821  0.251461  1
  Li  Li11  1  0.423455  0.089414  0.757673  1
  Li  Li12  1  0.243001  0.237265  0.571552  1
  Li  Li13  1  0.071991  0.431917  0.086384  1
  Li  Li14  1  0.091048  0.397122  0.408394  1
  Li  Li15  1  0.254084  0.254337  0.924046  1
  Li  Li16  1  0.089330  0.420229  0.755847  1
  Mn  Mn17  1  0.492452  0.488127  0.498982  1
  Mn  Mn18  1  0.169313  0.837837  0.834800  1
  Mn  Mn19  1  0.001074  0.000088  0.665441  1
  Mn  Mn20  1  0.003182  0.003241  0.003032  1
  Mn  Mn21  1  0.001460  0.000122  0.333297  1
  Mn  Mn22  1  0.830733  0.163491  0.167754  1
  Mn  Mn23  1  0.672295  0.339650  0.000919  1
  Mn  Mn24  1  0.816714  0.155728  0.496040  1
  Mn  Mn25  1  0.661954  0.331201  0.333278  1
  Mn  Mn26  1  0.837875  0.169808  0.834668  1
  Mn  Mn27  1  0.499128  0.500215  0.165659  1
  Mn  Mn28  1  0.672308  0.333604  0.667660  1
  Mn  Mn29  1  0.338879  0.672246  0.000925  1
  Mn  Mn30  1  0.335550  0.672194  0.333383  1
  Mn  Mn31  1  0.503519  0.503927  0.833935  1
  Mn  Mn32  1  0.335312  0.670268  0.667579  1
  Mn  Mn33  1  0.164035  0.831457  0.168033  1
  Mn  Mn34  1  0.160402  0.821847  0.496381  1
  O  O35  1  0.897408  0.899624  0.223160  1
  O  O36  1  0.949322  0.280531  0.299597  1
  O  O37  1  0.879305  0.877277  0.534394  1
  O  O38  1  0.781441  0.441110  0.131046  1
  O  O39  1  0.955638  0.279321  0.628901  1
  O  O40  1  0.887523  0.888178  0.870220  1
  O  O41  1  0.718891  0.060111  0.035476  1
  O  O42  1  0.952858  0.286812  0.964911  1
  O  O43  1  0.774921  0.438824  0.463629  1
  O  O44  1  0.723764  0.046486  0.366739  1
  O  O45  1  0.617312  0.614900  0.296838  1
  O  O46  1  0.784206  0.453013  0.798969  1
  O  O47  1  0.722471  0.055704  0.705352  1
  O  O48  1  0.548788  0.215682  0.202460  1
  O  O49  1  0.616998  0.615694  0.633492  1
  O  O50  1  0.440689  0.780508  0.129650  1
  O  O51  1  0.389670  0.389320  0.034554  1
  O  O52  1  0.550609  0.219821  0.546745  1
  O  O53  1  0.603521  0.604129  0.944153  1
  O  O54  1  0.443450  0.767832  0.465481  1
  O  O55  1  0.380705  0.393255  0.367533  1
  O  O56  1  0.552252  0.223583  0.867905  1
  O  O57  1  0.275578  0.946753  0.292865  1
  O  O58  1  0.451940  0.784047  0.798213  1
  O  O59  1  0.214203  0.547921  0.200892  1
  O  O60  1  0.402094  0.402428  0.722030  1
  O  O61  1  0.279037  0.948032  0.625847  1
  O  O62  1  0.058440  0.718931  0.034438  1
  O  O63  1  0.214014  0.541751  0.538770  1
  O  O64  1  0.286772  0.952671  0.964671  1
  O  O65  1  0.110767  0.111843  0.130952  1
  O  O66  1  0.049824  0.719893  0.368311  1
  O  O67  1  0.222643  0.552375  0.867520  1
  O  O68  1  0.089490  0.097571  0.448588  1
  O  O69  1  0.055155  0.719395  0.703213  1
  O  O70  1  0.119626  0.118219  0.797947  1
