# generated using pymatgen
data_LiMn10O20
_symmetry_space_group_name_H-M   'P 1'
_cell_length_a   10.14599006
_cell_length_b   8.27762892
_cell_length_c   10.14599006
_cell_angle_alpha   114.07462394
_cell_angle_beta   80.42121044
_cell_angle_gamma   114.07462394
_symmetry_Int_Tables_number   1
_chemical_formula_structural   LiMn10O20
_chemical_formula_sum   'Li2 Mn20 O40'
_cell_volume   710.31434029
_cell_formula_units_Z   2
loop_
 _symmetry_equiv_pos_site_id
 _symmetry_equiv_pos_as_xyz
  1  'x, y, z'
loop_
 _atom_site_type_symbol
 _atom_site_label
 _atom_site_symmetry_multiplicity
 _atom_site_fract_x
 _atom_site_fract_y
 _atom_site_fract_z
 _atom_site_occupancy
  Li  Li1  1  0.050000  0.075000  0.850000  1
  Li  Li2  1  0.550000  0.325000  0.350000  1
  Mn  Mn3  1  0.200120  0.798462  0.899403  1
  Mn  Mn4  1  0.998656  0.998059  0.498474  1
  Mn  Mn5  1  0.099403  0.400941  0.699880  1
  Mn  Mn6  1  0.300000  0.200000  0.600000  1
  Mn  Mn7  1  0.401526  0.100596  0.798656  1
  Mn  Mn8  1  0.101344  0.400928  0.201526  1
  Mn  Mn9  1  0.000597  0.501658  0.000120  1
  Mn  Mn10  1  0.198474  0.299404  0.401344  1
  Mn  Mn11  1  0.698474  0.800415  0.901344  1
  Mn  Mn12  1  0.500597  0.999059  0.500120  1
  Mn  Mn13  1  0.300000  0.200000  0.100000  1
  Mn  Mn14  1  0.399880  0.601538  0.300597  1
  Mn  Mn15  1  0.601344  0.401941  0.701526  1
  Mn  Mn16  1  0.899880  0.598939  0.800597  1
  Mn  Mn17  1  0.498656  0.999072  0.998474  1
  Mn  Mn18  1  0.700120  0.801061  0.399403  1
  Mn  Mn19  1  0.599403  0.898342  0.199880  1
  Mn  Mn20  1  0.800000  0.700000  0.600000  1
  Mn  Mn21  1  0.800000  0.200000  0.100000  1
  Mn  Mn22  1  0.901526  0.599585  0.298656  1
  O  O23  1  0.006308  0.729114  0.981692  1
  O  O24  1  0.181692  0.552577  0.893692  1
  O  O25  1  0.093692  0.641114  0.718308  1
  O  O26  1  0.215498  0.045726  0.903028  1
  O  O27  1  0.017616  0.246493  0.506178  1
  O  O28  1  0.103028  0.157302  0.684502  1
  O  O29  1  0.393822  0.871122  0.817616  1
  O  O30  1  0.193221  0.071640  0.418653  1
  O  O31  1  0.280610  0.422184  0.593909  1
  O  O32  1  0.481347  0.221580  0.993221  1
  O  O33  1  0.082384  0.622700  0.193822  1
  O  O34  1  0.406779  0.328360  0.781347  1
  O  O35  1  0.206178  0.528878  0.382384  1
  O  O36  1  0.319390  0.977816  0.606091  1
  O  O37  1  0.118653  0.178420  0.206779  1
  O  O38  1  0.582384  0.153507  0.693822  1
  O  O39  1  0.384502  0.354274  0.296972  1
  O  O40  1  0.693221  0.040233  0.918653  1
  O  O41  1  0.293909  0.441574  0.119390  1
  O  O42  1  0.496972  0.242698  0.515498  1
  O  O43  1  0.706178  0.559684  0.882384  1
  O  O44  1  0.306091  0.958426  0.080610  1
  O  O45  1  0.418308  0.847423  0.306308  1
  O  O46  1  0.506308  0.758886  0.481692  1
  O  O47  1  0.618653  0.647013  0.706779  1
  O  O48  1  0.681692  0.022806  0.393692  1
  O  O49  1  0.593692  0.670886  0.218308  1
  O  O50  1  0.884502  0.827200  0.796972  1
  O  O51  1  0.793909  0.471726  0.619390  1
  O  O52  1  0.603028  0.130228  0.184502  1
  O  O53  1  0.715498  0.572800  0.403028  1
  O  O54  1  0.517616  0.777300  0.006178  1
  O  O55  1  0.806091  0.928274  0.580610  1
  O  O56  1  0.918308  0.377194  0.806308  1
  O  O57  1  0.780610  0.952336  0.093909  1
  O  O58  1  0.893822  0.840316  0.317616  1
  O  O59  1  0.981347  0.752987  0.493221  1
  O  O60  1  0.906779  0.359767  0.281347  1
  O  O61  1  0.819390  0.447664  0.106091  1
  O  O62  1  0.996972  0.269772  0.015498  1
