# generated using pymatgen
data_Li3MnO4
_symmetry_space_group_name_H-M   'P 1'
_cell_length_a   7.11282662
_cell_length_b   7.11341390
_cell_length_c   7.09775142
_cell_angle_alpha   70.50551625
_cell_angle_beta   70.52236221
_cell_angle_gamma   109.53014400
_symmetry_Int_Tables_number   1
_chemical_formula_structural   Li3MnO4
_chemical_formula_sum   'Li12 Mn4 O16'
_cell_volume   276.14890098
_cell_formula_units_Z   4
loop_
 _symmetry_equiv_pos_site_id
 _symmetry_equiv_pos_as_xyz
  1  'x, y, z'
loop_
 _atom_site_type_symbol
 _atom_site_label
 _atom_site_symmetry_multiplicity
 _atom_site_fract_x
 _atom_site_fract_y
 _atom_site_fract_z
 _atom_site_occupancy
  Li  Li1  1  0.482143  0.737234  0.000081  1
  Li  Li2  1  0.744709  0.256615  0.741181  1
  Li  Li3  1  0.255915  0.744126  0.741613  1
  Li  Li4  1  0.256634  0.256779  0.252094  1
  Li  Li5  1  0.250590  0.511172  0.487159  1
  Li  Li6  1  0.511758  0.250919  0.486416  1
  Li  Li7  1  0.508730  0.508793  0.748047  1
  Li  Li8  1  0.737524  0.998341  0.513502  1
  Li  Li9  1  0.737529  0.482275  0.999748  1
  Li  Li10  1  0.998279  0.737694  0.513198  1
  Li  Li11  1  0.997764  0.485571  0.258845  1
  Li  Li12  1  0.485894  0.997721  0.258422  1
  Mn  Mn13  1  0.735627  0.735586  0.262741  1
  Mn  Mn14  1  0.998332  0.998409  0.737110  1
  Mn  Mn15  1  0.998177  0.261472  0.000007  1
  Mn  Mn16  1  0.261345  0.998225  0.999952  1
  O  O17  1  0.225854  0.225958  0.772073  1
  O  O18  1  0.474643  0.998079  0.765728  1
  O  O19  1  0.771287  0.998377  0.999947  1
  O  O20  1  0.231545  0.475324  0.000069  1
  O  O21  1  0.475335  0.231592  0.999953  1
  O  O22  1  0.232239  0.998295  0.522879  1
  O  O23  1  0.763427  0.763426  0.758868  1
  O  O24  1  0.998175  0.232144  0.522784  1
  O  O25  1  0.998117  0.474808  0.765839  1
  O  O26  1  0.240480  0.763866  0.234268  1
  O  O27  1  0.763831  0.240374  0.234273  1
  O  O28  1  0.998350  0.771244  -0.000013  1
  O  O29  1  0.521242  0.755172  0.477062  1
  O  O30  1  0.755067  0.521060  0.477132  1
  O  O31  1  0.522344  0.522344  0.241104  1
  O  O32  1  0.998063  0.997965  0.227917  1
