# generated using pymatgen
data_Li3Mn4O8
_symmetry_space_group_name_H-M   'P 1'
_cell_length_a   10.29589812
_cell_length_b   10.29589832
_cell_length_c   5.31720273
_cell_angle_alpha   33.99792855
_cell_angle_beta   33.99792963
_cell_angle_gamma   32.62012182
_symmetry_Int_Tables_number   1
_chemical_formula_structural   Li3Mn4O8
_chemical_formula_sum   'Li3 Mn4 O8'
_cell_volume   153.07726297
_cell_formula_units_Z   1
loop_
 _symmetry_equiv_pos_site_id
 _symmetry_equiv_pos_as_xyz
  1  'x, y, z'
loop_
 _atom_site_type_symbol
 _atom_site_label
 _atom_site_symmetry_multiplicity
 _atom_site_fract_x
 _atom_site_fract_y
 _atom_site_fract_z
 _atom_site_occupancy
  Li  Li1  1  0.247455  0.247455  0.520972  1
  Li  Li2  1  0.248221  0.751038  0.500408  1
  Li  Li3  1  0.751038  0.248221  0.500408  1
  Mn  Mn4  1  0.996452  0.996452  0.003016  1
  Mn  Mn5  1  0.998463  0.501394  0.000481  1
  Mn  Mn6  1  0.501394  0.998463  0.000481  1
  Mn  Mn7  1  0.503036  0.503036  0.997134  1
  O  O8  1  0.142885  0.142884  0.201424  1
  O  O9  1  0.156382  0.629624  0.201798  1
  O  O10  1  0.629625  0.156381  0.201798  1
  O  O11  1  0.619517  0.619516  0.325972  1
  O  O12  1  0.378880  0.378877  0.694234  1
  O  O13  1  0.349733  0.865239  0.794568  1
  O  O14  1  0.865242  0.349730  0.794568  1
  O  O15  1  0.861689  0.861686  0.762734  1
