# generated using pymatgen
data_LiMn3O4
_symmetry_space_group_name_H-M   'P 1'
_cell_length_a   6.07171005
_cell_length_b   6.07170939
_cell_length_c   6.29578119
_cell_angle_alpha   119.52049196
_cell_angle_beta   119.52048819
_cell_angle_gamma   88.51347964
_symmetry_Int_Tables_number   1
_chemical_formula_structural   LiMn3O4
_chemical_formula_sum   'Li2 Mn6 O8'
_cell_volume   168.38691790
_cell_formula_units_Z   2
loop_
 _symmetry_equiv_pos_site_id
 _symmetry_equiv_pos_as_xyz
  1  'x, y, z'
loop_
 _atom_site_type_symbol
 _atom_site_label
 _atom_site_symmetry_multiplicity
 _atom_site_fract_x
 _atom_site_fract_y
 _atom_site_fract_z
 _atom_site_occupancy
  Li  Li1  1  0.000000  0.500000  0.000000  1
  Li  Li2  1  0.500000  0.000000  0.500000  1
  Mn  Mn3  1  0.000000  0.000000  0.000000  1
  Mn  Mn4  1  0.500000  0.500000  0.000000  1
  Mn  Mn5  1  0.500000  0.500000  0.500000  1
  Mn  Mn6  1  0.500000  0.000000  0.000000  1
  Mn  Mn7  1  0.000000  0.500000  0.500000  1
  Mn  Mn8  1  0.000000  0.000000  0.500000  1
  O  O9  1  0.262948  0.761644  0.000378  1
  O  O10  1  0.245986  0.252647  0.497436  1
  O  O11  1  0.238356  0.737052  0.499622  1
  O  O12  1  0.747353  0.754014  0.002564  1
  O  O13  1  0.252647  0.245986  0.997436  1
  O  O14  1  0.761644  0.262948  0.500378  1
  O  O15  1  0.754014  0.747353  0.502564  1
  O  O16  1  0.737052  0.238356  -0.000378  1
