# generated using pymatgen
data_LiMn16O32
_symmetry_space_group_name_H-M   'P 1'
_cell_length_a   5.87965221
_cell_length_b   9.95857825
_cell_length_c   9.90756994
_cell_angle_alpha   89.77883997
_cell_angle_beta   90.00200205
_cell_angle_gamma   90.00059605
_symmetry_Int_Tables_number   1
_chemical_formula_structural   LiMn16O32
_chemical_formula_sum   'Li1 Mn16 O32'
_cell_volume   580.11338891
_cell_formula_units_Z   1
loop_
 _symmetry_equiv_pos_site_id
 _symmetry_equiv_pos_as_xyz
  1  'x, y, z'
loop_
 _atom_site_type_symbol
 _atom_site_label
 _atom_site_symmetry_multiplicity
 _atom_site_fract_x
 _atom_site_fract_y
 _atom_site_fract_z
 _atom_site_occupancy
  Li  Li1  1  0.749964  0.578423  0.510878  1
  Mn  Mn2  1  0.499275  0.651890  0.832549  1
  Mn  Mn3  1  0.000814  0.651963  0.832567  1
  Mn  Mn4  1  0.499347  0.168907  0.651473  1
  Mn  Mn5  1  0.000751  0.168889  0.651337  1
  Mn  Mn6  1  0.000897  0.837012  0.349482  1
  Mn  Mn7  1  0.498942  0.837126  0.349570  1
  Mn  Mn8  1  0.000275  0.351315  0.166237  1
  Mn  Mn9  1  0.499677  0.351323  0.166213  1
  Mn  Mn10  1  0.250203  0.153714  0.333309  1
  Mn  Mn11  1  0.749959  0.152980  0.333388  1
  Mn  Mn12  1  0.250234  0.667820  0.152624  1
  Mn  Mn13  1  0.749800  0.666900  0.151383  1
  Mn  Mn14  1  0.250260  0.335508  0.848034  1
  Mn  Mn15  1  0.749712  0.335455  0.848494  1
  Mn  Mn16  1  0.249918  0.851122  0.667877  1
  Mn  Mn17  1  0.750055  0.853911  0.668475  1
  O  O18  1  0.249944  0.338736  0.042481  1
  O  O19  1  0.750031  0.338955  0.042624  1
  O  O20  1  0.250025  0.960257  0.334861  1
  O  O21  1  0.749960  0.959938  0.335048  1
  O  O22  1  0.249997  0.045759  0.665132  1
  O  O23  1  0.749965  0.046232  0.665679  1
  O  O24  1  0.249950  0.662202  0.958193  1
  O  O25  1  0.750028  0.662019  0.957463  1
  O  O26  1  0.999163  0.837619  0.543860  1
  O  O27  1  0.500878  0.837620  0.543929  1
  O  O28  1  1.000081  0.458267  0.830369  1
  O  O29  1  0.499984  0.458265  0.830381  1
  O  O30  1  0.499967  0.543775  0.169850  1
  O  O31  1  -0.000091  0.543807  0.169897  1
  O  O32  1  0.500055  0.168013  0.457016  1
  O  O33  1  1.000036  0.168001  0.457057  1
  O  O34  1  0.500296  0.159020  0.204296  1
  O  O35  1  0.999768  0.159112  0.204327  1
  O  O36  1  0.998856  0.796395  0.157622  1
  O  O37  1  0.501019  0.796335  0.157718  1
  O  O38  1  0.999710  0.845090  0.796832  1
  O  O39  1  0.500334  0.845109  0.796826  1
  O  O40  1  0.500060  0.207006  0.843957  1
  O  O41  1  0.999969  0.206973  0.844006  1
  O  O42  1  0.250004  0.659133  0.701423  1
  O  O43  1  0.750035  0.657885  0.696150  1
  O  O44  1  0.249945  0.297889  0.654823  1
  O  O45  1  0.750005  0.299447  0.654334  1
  O  O46  1  0.250067  0.346368  0.295715  1
  O  O47  1  0.749950  0.347059  0.297036  1
  O  O48  1  0.249917  0.708709  0.349263  1
  O  O49  1  0.750006  0.704649  0.352277  1
