# generated using pymatgen
data_LiMn4O8
_symmetry_space_group_name_H-M   'P 1'
_cell_length_a   5.91744193
_cell_length_b   9.61648640
_cell_length_c   10.31347971
_cell_angle_alpha   91.56916972
_cell_angle_beta   89.99997012
_cell_angle_gamma   90.00014082
_symmetry_Int_Tables_number   1
_chemical_formula_structural   LiMn4O8
_chemical_formula_sum   'Li4 Mn16 O32'
_cell_volume   586.66847496
_cell_formula_units_Z   4
loop_
 _symmetry_equiv_pos_site_id
 _symmetry_equiv_pos_as_xyz
  1  'x, y, z'
loop_
 _atom_site_type_symbol
 _atom_site_label
 _atom_site_symmetry_multiplicity
 _atom_site_fract_x
 _atom_site_fract_y
 _atom_site_fract_z
 _atom_site_occupancy
  Li  Li1  1  0.506067  0.525400  0.355879  1
  Li  Li2  1  0.006015  0.474607  0.644113  1
  Li  Li3  1  0.743991  0.025420  0.855900  1
  Li  Li4  1  0.244053  0.974561  0.144107  1
  Mn  Mn5  1  0.498921  0.831444  0.352443  1
  Mn  Mn6  1  0.001575  0.821923  0.357468  1
  Mn  Mn7  1  0.500711  0.654523  0.838662  1
  Mn  Mn8  1  0.999915  0.662126  0.844297  1
  Mn  Mn9  1  0.000713  0.345473  0.161330  1
  Mn  Mn10  1  0.499911  0.337859  0.155698  1
  Mn  Mn11  1  0.998913  0.168563  0.647570  1
  Mn  Mn12  1  0.501546  0.178099  0.642530  1
  Mn  Mn13  1  0.248435  0.321905  0.857457  1
  Mn  Mn14  1  0.751095  0.331450  0.852398  1
  Mn  Mn15  1  0.250058  0.162120  0.344266  1
  Mn  Mn16  1  0.749250  0.154524  0.338651  1
  Mn  Mn17  1  0.249254  0.845486  0.661363  1
  Mn  Mn18  1  0.750062  0.837893  0.655734  1
  Mn  Mn19  1  0.251135  0.668548  0.147605  1
  Mn  Mn20  1  0.748458  0.678083  0.142536  1
  O  O21  1  0.247306  0.041616  0.642968  1
  O  O22  1  0.751764  0.038708  0.648507  1
  O  O23  1  0.247661  0.305806  0.042340  1
  O  O24  1  0.752577  0.310188  0.040403  1
  O  O25  1  0.252588  0.689796  0.959597  1
  O  O26  1  0.747668  0.694182  0.957657  1
  O  O27  1  0.251788  0.961296  0.351492  1
  O  O28  1  0.747306  0.958386  0.357034  1
  O  O29  1  0.002685  0.541625  0.142976  1
  O  O30  1  0.498232  0.538685  0.148503  1
  O  O31  1  0.002290  0.805831  0.542357  1
  O  O32  1  0.497416  0.810215  0.540444  1
  O  O33  1  0.502280  0.194187  0.457640  1
  O  O34  1  0.997422  0.189798  0.459561  1
  O  O35  1  0.502659  0.458380  0.857023  1
  O  O36  1  0.998222  0.461307  0.851497  1
  O  O37  1  0.516326  0.190877  0.832391  1
  O  O38  1  0.981026  0.185045  0.837000  1
  O  O39  1  0.006642  0.145228  0.215977  1
  O  O40  1  0.492829  0.142629  0.213308  1
  O  O41  1  0.016363  0.809128  0.167606  1
  O  O42  1  0.481061  0.814954  0.163004  1
  O  O43  1  0.506649  0.854778  0.784027  1
  O  O44  1  0.992827  0.857367  0.786694  1
  O  O45  1  0.269053  0.685030  0.337034  1
  O  O46  1  0.733752  0.690882  0.332412  1
  O  O47  1  0.243289  0.645240  0.716004  1
  O  O48  1  0.757114  0.642659  0.713335  1
  O  O49  1  0.233715  0.309128  0.667589  1
  O  O50  1  0.769023  0.314962  0.662973  1
  O  O51  1  0.257105  0.357339  0.286658  1
  O  O52  1  0.743284  0.354763  0.283991  1
