# generated using pymatgen
data_LiMn8O16
_symmetry_space_group_name_H-M   'P 1'
_cell_length_a   5.90135722
_cell_length_b   23.49334522
_cell_length_c   10.17975414
_cell_angle_alpha   29.93323362
_cell_angle_beta   54.56949746
_cell_angle_gamma   59.84205869
_symmetry_Int_Tables_number   1
_chemical_formula_structural   LiMn8O16
_chemical_formula_sum   'Li2 Mn16 O32'
_cell_volume   573.83577660
_cell_formula_units_Z   2
loop_
 _symmetry_equiv_pos_site_id
 _symmetry_equiv_pos_as_xyz
  1  'x, y, z'
loop_
 _atom_site_type_symbol
 _atom_site_label
 _atom_site_symmetry_multiplicity
 _atom_site_fract_x
 _atom_site_fract_y
 _atom_site_fract_z
 _atom_site_occupancy
  Li  Li1  1  0.124557  0.250000  0.125443  1
  Li  Li2  1  0.875443  0.750000  0.874557  1
  Mn  Mn3  1  0.501365  0.125580  0.997476  1
  Mn  Mn4  1  0.500000  0.000000  0.500000  1
  Mn  Mn5  1  0.500139  0.123003  0.503855  1
  Mn  Mn6  1  0.500139  0.376997  0.995868  1
  Mn  Mn7  1  0.000000  0.000000  0.500000  1
  Mn  Mn8  1  0.498670  0.250000  0.501069  1
  Mn  Mn9  1  0.501365  0.374420  0.499794  1
  Mn  Mn10  1  0.499861  0.623003  0.004132  1
  Mn  Mn11  1  0.999192  0.250000  0.501069  1
  Mn  Mn12  1  0.500000  0.500000  0.500000  1
  Mn  Mn13  1  0.498635  0.625580  0.500206  1
  Mn  Mn14  1  0.498635  0.874420  0.002524  1
  Mn  Mn15  1  0.000000  0.500000  0.500000  1
  Mn  Mn16  1  0.501330  0.750000  0.498931  1
  Mn  Mn17  1  0.499861  0.876997  0.496145  1
  Mn  Mn18  1  0.000808  0.750000  0.498931  1
  O  O19  1  0.269028  0.000231  0.263454  1
  O  O20  1  0.266390  0.116079  0.251452  1
  O  O21  1  0.703140  0.000231  0.263454  1
  O  O22  1  0.264695  0.250000  0.263355  1
  O  O23  1  0.733168  0.109248  0.298336  1
  O  O24  1  0.265356  0.358938  0.266767  1
  O  O25  1  0.265356  0.141062  0.702521  1
  O  O26  1  0.708595  0.250000  0.263355  1
  O  O27  1  0.297250  0.250000  0.734341  1
  O  O28  1  0.269028  0.499769  0.264379  1
  O  O29  1  0.735590  0.140768  0.732874  1
  O  O30  1  0.735590  0.359232  0.295946  1
  O  O31  1  0.266390  0.383921  0.715768  1
  O  O32  1  0.266832  0.609248  0.264672  1
  O  O33  1  0.734068  0.250000  0.734341  1
  O  O34  1  0.703140  0.499769  0.264379  1
  O  O35  1  0.296860  0.500231  0.735621  1
  O  O36  1  0.265932  0.750000  0.265659  1
  O  O37  1  0.733168  0.390752  0.735328  1
  O  O38  1  0.264410  0.640768  0.704054  1
  O  O39  1  0.733610  0.616079  0.284232  1
  O  O40  1  0.264410  0.859232  0.267126  1
  O  O41  1  0.702750  0.750000  0.265659  1
  O  O42  1  0.730972  0.500231  0.735621  1
  O  O43  1  0.291405  0.750000  0.736645  1
  O  O44  1  0.734644  0.858938  0.297479  1
  O  O45  1  0.734644  0.641062  0.733233  1
  O  O46  1  0.266832  0.890752  0.701664  1
  O  O47  1  0.735305  0.750000  0.736645  1
  O  O48  1  0.296860  0.999769  0.736546  1
  O  O49  1  0.733610  0.883921  0.748548  1
  O  O50  1  0.730972  0.999769  0.736546  1
