# generated using pymatgen
data_LiMn8O16
_symmetry_space_group_name_H-M   'P 1'
_cell_length_a   5.90103540
_cell_length_b   9.87891672
_cell_length_c   9.98218814
_cell_angle_alpha   89.39724961
_cell_angle_beta   90.00220493
_cell_angle_gamma   89.99896469
_symmetry_Int_Tables_number   1
_chemical_formula_structural   LiMn8O16
_chemical_formula_sum   'Li2 Mn16 O32'
_cell_volume   581.88781491
_cell_formula_units_Z   2
loop_
 _symmetry_equiv_pos_site_id
 _symmetry_equiv_pos_as_xyz
  1  'x, y, z'
loop_
 _atom_site_type_symbol
 _atom_site_label
 _atom_site_symmetry_multiplicity
 _atom_site_fract_x
 _atom_site_fract_y
 _atom_site_fract_z
 _atom_site_occupancy
  Li  Li1  1  0.249867  0.488764  0.421843  1
  Li  Li2  1  0.499891  0.988588  0.921868  1
  Mn  Mn3  1  0.500766  0.168257  0.346642  1
  Mn  Mn4  1  0.999256  0.168371  0.345671  1
  Mn  Mn5  1  0.500382  0.348107  0.830731  1
  Mn  Mn6  1  0.999208  0.347089  0.830054  1
  Mn  Mn7  1  0.998545  0.651432  0.160979  1
  Mn  Mn8  1  0.501320  0.651019  0.161056  1
  Mn  Mn9  1  1.000214  0.832186  0.646143  1
  Mn  Mn10  1  0.500272  0.831920  0.643773  1
  Mn  Mn11  1  0.750820  0.668269  0.845724  1
  Mn  Mn12  1  0.249237  0.668237  0.846442  1
  Mn  Mn13  1  0.750713  0.847262  0.329912  1
  Mn  Mn14  1  0.249750  0.848327  0.330695  1
  Mn  Mn15  1  0.751212  0.151388  0.661095  1
  Mn  Mn16  1  0.248985  0.150815  0.661144  1
  Mn  Mn17  1  0.750014  0.332159  0.146087  1
  Mn  Mn18  1  0.249658  0.332099  0.143862  1
  O  O19  1  0.749650  0.956598  0.657050  1
  O  O20  1  0.250664  0.956432  0.657234  1
  O  O21  1  0.749963  0.671155  0.038878  1
  O  O22  1  0.250028  0.670376  0.039315  1
  O  O23  1  0.749550  0.328614  0.953296  1
  O  O24  1  0.250125  0.328284  0.952684  1
  O  O25  1  0.750332  0.041734  0.335825  1
  O  O26  1  0.249736  0.042579  0.335531  1
  O  O27  1  0.000298  0.456671  0.157047  1
  O  O28  1  0.499249  0.456432  0.157239  1
  O  O29  1  0.000032  0.171154  0.538842  1
  O  O30  1  0.499980  0.170400  0.539352  1
  O  O31  1  0.499886  0.828313  0.452703  1
  O  O32  1  0.000463  0.828669  0.453262  1
  O  O33  1  0.500355  0.542374  0.835537  1
  O  O34  1  0.999676  0.541570  0.835793  1
  O  O35  1  0.500473  0.805187  0.838951  1
  O  O36  1  0.999815  0.799207  0.837665  1
  O  O37  1  0.001155  0.843895  0.201233  1
  O  O38  1  0.498884  0.844373  0.199420  1
  O  O39  1  0.000268  0.202806  0.152733  1
  O  O40  1  0.499330  0.201581  0.152155  1
  O  O41  1  0.499883  0.146682  0.792834  1
  O  O42  1  0.000069  0.149030  0.788478  1
  O  O43  1  0.750209  0.299383  0.337691  1
  O  O44  1  0.249493  0.305341  0.338967  1
  O  O45  1  0.748852  0.343766  0.701239  1
  O  O46  1  0.251090  0.344345  0.699474  1
  O  O47  1  0.749695  0.702715  0.652729  1
  O  O48  1  0.250613  0.701498  0.652075  1
  O  O49  1  0.749958  0.649111  0.288462  1
  O  O50  1  0.250116  0.646751  0.292792  1
