# generated using pymatgen
data_LiMn2O4
_symmetry_space_group_name_H-M   'P 1'
_cell_length_a   8.70631317
_cell_length_b   13.10418449
_cell_length_c   13.20360767
_cell_angle_alpha   83.75446196
_cell_angle_beta   70.73092670
_cell_angle_gamma   70.60259348
_symmetry_Int_Tables_number   1
_chemical_formula_structural   LiMn2O4
_chemical_formula_sum   'Li18 Mn36 O72'
_cell_volume   1341.28261115
_cell_formula_units_Z   18
loop_
 _symmetry_equiv_pos_site_id
 _symmetry_equiv_pos_as_xyz
  1  'x, y, z'
loop_
 _atom_site_type_symbol
 _atom_site_label
 _atom_site_symmetry_multiplicity
 _atom_site_fract_x
 _atom_site_fract_y
 _atom_site_fract_z
 _atom_site_occupancy
  Li  Li1  1  0.788621  0.750195  0.419766  1
  Li  Li2  1  0.462856  0.749526  0.079537  1
  Li  Li3  1  0.205070  0.915644  0.913074  1
  Li  Li4  1  0.795119  0.082372  0.085232  1
  Li  Li5  1  0.882562  0.916286  0.586403  1
  Li  Li6  1  0.206892  0.585930  0.249803  1
  Li  Li7  1  0.457882  0.085655  0.749638  1
  Li  Li8  1  0.876554  0.250962  0.251240  1
  Li  Li9  1  0.542084  0.250556  0.918831  1
  Li  Li10  1  0.792841  0.413237  0.750719  1
  Li  Li11  1  0.544422  0.913183  0.250847  1
  Li  Li12  1  0.116319  0.416402  0.085879  1
  Li  Li13  1  0.467004  0.415820  0.413942  1
  Li  Li14  1  0.209526  0.249622  0.580866  1
  Li  Li15  1  0.884601  0.582942  0.913919  1
  Li  Li16  1  0.536690  0.583448  0.586381  1
  Li  Li17  1  0.122992  0.750278  0.750503  1
  Li  Li18  1  0.117952  0.082736  0.414706  1
  Mn  Mn19  1  0.828712  0.334377  0.497190  1
  Mn  Mn20  1  0.995466  0.168675  0.834868  1
  Mn  Mn21  1  0.168234  0.830705  0.333525  1
  Mn  Mn22  1  0.672194  0.502197  0.164537  1
  Mn  Mn23  1  0.162861  0.166261  0.003186  1
  Mn  Mn24  1  0.167412  0.997307  0.166253  1
  Mn  Mn25  1  0.503099  0.668828  0.335963  1
  Mn  Mn26  1  0.168188  0.666682  0.504681  1
  Mn  Mn27  1  0.505256  0.165735  0.330874  1
  Mn  Mn28  1  0.169252  0.330886  0.834032  1
  Mn  Mn29  1  0.001763  0.831209  0.165718  1
  Mn  Mn30  1  0.841686  0.834054  0.995545  1
  Mn  Mn31  1  0.675376  0.164855  0.496825  1
  Mn  Mn32  1  0.330767  0.498023  0.833955  1
  Mn  Mn33  1  0.504811  0.332129  0.168306  1
  Mn  Mn34  1  0.837137  0.334037  0.004065  1
  Mn  Mn35  1  0.324520  0.834306  0.505223  1
  Mn  Mn36  1  0.998272  0.499827  0.499608  1
  Mn  Mn37  1  0.825212  0.502233  0.335784  1
  Mn  Mn38  1  0.838569  0.666236  0.669456  1
  Mn  Mn39  1  0.325393  0.166612  0.169124  1
  Mn  Mn40  1  0.160803  0.331897  0.330705  1
  Mn  Mn41  1  0.496213  0.832137  0.668383  1
  Mn  Mn42  1  0.500265  0.500578  0.000568  1
  Mn  Mn43  1  0.677962  0.831093  0.830594  1
  Mn  Mn44  1  0.503329  0.999521  0.998797  1
  Mn  Mn45  1  0.499700  0.000279  0.500734  1
  Mn  Mn46  1  0.499960  0.665745  0.831153  1
  Mn  Mn47  1  0.168729  0.497491  0.667157  1
  Mn  Mn48  1  0.162808  0.002311  0.665575  1
  Mn  Mn49  1  0.829110  0.668859  0.164714  1
  Mn  Mn50  1  0.163893  0.665489  0.994780  1
  Mn  Mn51  1  0.838928  0.997820  0.334383  1
  Mn  Mn52  1  0.835567  0.169276  0.666348  1
  Mn  Mn53  1  0.500734  0.331140  0.666031  1
  Mn  Mn54  1  0.836767  0.002259  0.834663  1
  O  O55  1  0.548895  0.168838  0.171978  1
  O  O56  1  0.392537  0.006831  0.159108  1
  O  O57  1  0.762866  0.823634  0.150165  1
  O  O58  1  0.241721  0.843894  0.172942  1
  O  O59  1  0.247102  0.509209  0.988225  1
  O  O60  1  0.066846  0.824300  0.005346  1
  O  O61  1  0.762695  0.157279  0.827870  1
  O  O62  1  0.756543  0.008306  0.488822  1
  O  O63  1  0.761170  0.324787  0.651721  1
  O  O64  1  0.614218  0.840637  0.988120  1
  O  O65  1  0.424556  0.322756  0.322225  1
  O  O66  1  0.888070  0.510714  0.177658  1
  O  O67  1  0.605102  0.006092  0.340963  1
  O  O68  1  0.926043  0.010687  0.676960  1
  O  O69  1  0.764725  0.990728  0.989101  1
  O  O70  1  0.935007  0.176195  0.000962  1
  O  O71  1  0.609985  0.669390  0.672139  1
  O  O72  1  0.053281  0.494437  0.340969  1
  O  O73  1  0.940950  0.506571  0.659708  1
  O  O74  1  0.236306  0.010165  0.012251  1
  O  O75  1  0.071591  0.323870  0.995970  1
  O  O76  1  0.898007  0.346813  0.343364  1
  O  O77  1  0.758414  0.153087  0.341646  1
  O  O78  1  0.452566  0.496119  0.158808  1
  O  O79  1  0.754779  0.490482  0.489906  1
  O  O80  1  0.390425  0.159096  0.010844  1
  O  O81  1  0.591538  0.174141  0.651605  1
  O  O82  1  0.753285  0.821154  0.675167  1
  O  O83  1  0.938221  0.992051  0.176633  1
  O  O84  1  0.549846  0.505691  0.841178  1
  O  O85  1  0.250314  0.673783  0.349283  1
  O  O86  1  0.546389  0.840753  0.511506  1
  O  O87  1  0.414716  0.342668  0.824406  1
  O  O88  1  0.599679  0.656525  0.167114  1
  O  O89  1  0.383702  0.677339  0.506273  1
  O  O90  1  0.602183  0.340589  0.011607  1
  O  O91  1  0.397667  0.659163  0.990175  1
  O  O92  1  0.074518  0.657295  0.661505  1
  O  O93  1  0.755676  0.489893  0.010489  1
  O  O94  1  0.244161  0.845519  0.658652  1
  O  O95  1  0.064605  0.010876  0.823692  1
  O  O96  1  0.234034  0.174294  0.849494  1
  O  O97  1  0.106324  0.157040  0.160641  1
  O  O98  1  0.454746  0.159047  0.490048  1
  O  O99  1  0.935798  0.677626  0.996167  1
  O  O100  1  0.251669  0.653766  0.840096  1
  O  O101  1  0.939745  0.659195  0.510798  1
  O  O102  1  0.920084  0.841781  0.323648  1
  O  O103  1  0.108814  0.824244  0.496027  1
  O  O104  1  0.601045  0.511055  0.322870  1
  O  O105  1  0.412633  0.823568  0.350378  1
  O  O106  1  0.075780  0.673237  0.151414  1
  O  O107  1  0.112742  0.489372  0.824017  1
  O  O108  1  0.743952  0.656824  0.333462  1
  O  O109  1  0.240561  0.510643  0.513064  1
  O  O110  1  0.915622  0.323692  0.849338  1
  O  O111  1  0.057026  0.341121  0.489089  1
  O  O112  1  0.752917  0.671412  0.822486  1
  O  O113  1  0.605119  0.323608  0.505439  1
  O  O114  1  0.245106  0.990688  0.511130  1
  O  O115  1  0.075928  0.988733  0.323566  1
  O  O116  1  0.912830  0.847032  0.842160  1
  O  O117  1  0.890377  0.176416  0.503146  1
  O  O118  1  0.251704  0.172735  0.322009  1
  O  O119  1  0.433123  0.823019  0.822454  1
  O  O120  1  0.752744  0.345209  0.158050  1
  O  O121  1  0.393857  0.491886  0.676498  1
  O  O122  1  0.252343  0.321717  0.174744  1
  O  O123  1  0.395151  0.994749  0.659310  1
  O  O124  1  0.083167  0.156475  0.672149  1
  O  O125  1  0.240885  0.344548  0.673868  1
  O  O126  1  0.612084  0.994032  0.840400  1
