# generated using pymatgen
data_LiMn2O4
_symmetry_space_group_name_H-M   'P 1'
_cell_length_a   6.04904276
_cell_length_b   8.22519362
_cell_length_c   10.54361166
_cell_angle_alpha   113.26544220
_cell_angle_beta   109.70494745
_cell_angle_gamma   89.50460887
_symmetry_Int_Tables_number   1
_chemical_formula_structural   LiMn2O4
_chemical_formula_sum   'Li6 Mn12 O24'
_cell_volume   448.98570207
_cell_formula_units_Z   6
loop_
 _symmetry_equiv_pos_site_id
 _symmetry_equiv_pos_as_xyz
  1  'x, y, z'
loop_
 _atom_site_type_symbol
 _atom_site_label
 _atom_site_symmetry_multiplicity
 _atom_site_fract_x
 _atom_site_fract_y
 _atom_site_fract_z
 _atom_site_occupancy
  Li  Li1  1  0.903505  0.794158  0.836606  1
  Li  Li2  1  0.576889  0.459481  0.171408  1
  Li  Li3  1  0.095909  0.205096  0.163939  1
  Li  Li4  1  0.760845  0.875207  0.495596  1
  Li  Li5  1  0.419288  0.541169  0.831245  1
  Li  Li6  1  0.241573  0.127943  0.502077  1
  Mn  Mn7  1  0.336998  0.832531  0.165517  1
  Mn  Mn8  1  0.498214  0.999222  0.999591  1
  Mn  Mn9  1  0.162864  0.168845  0.839194  1
  Mn  Mn10  1  0.173172  0.665967  0.332091  1
  Mn  Mn11  1  0.662517  0.170445  0.838755  1
  Mn  Mn12  1  0.997069  0.499255  0.002910  1
  Mn  Mn13  1  0.500816  0.499937  0.499025  1
  Mn  Mn14  1  0.834590  0.832077  0.162211  1
  Mn  Mn15  1  0.828610  0.336299  0.668045  1
  Mn  Mn16  1  0.999640  0.498343  0.496185  1
  Mn  Mn17  1  0.328809  0.835142  0.665200  1
  Mn  Mn18  1  0.672398  0.167511  0.333459  1
  O  O19  1  0.809187  0.566833  0.654616  1
  O  O20  1  0.691839  0.409720  0.851640  1
  O  O21  1  0.522563  0.768984  0.008207  1
  O  O22  1  0.476018  0.230012  0.993598  1
  O  O23  1  0.516532  0.268953  0.506111  1
  O  O24  1  0.813791  0.059016  0.151156  1
  O  O25  1  0.033428  0.733012  0.486776  1
  O  O26  1  0.001348  0.745218  0.021028  1
  O  O27  1  0.864691  0.591422  0.163073  1
  O  O28  1  0.664993  0.419280  0.356717  1
  O  O29  1  0.144407  0.894956  0.318598  1
  O  O30  1  0.333533  0.584651  0.641190  1
  O  O31  1  0.671999  0.909742  0.304123  1
  O  O32  1  0.183834  0.938470  0.846307  1
  O  O33  1  0.001585  0.254993  0.983733  1
  O  O34  1  0.323296  0.089634  0.695156  1
  O  O35  1  0.478251  0.732843  0.487305  1
  O  O36  1  0.191427  0.437264  0.340770  1
  O  O37  1  0.136459  0.413395  0.847755  1
  O  O38  1  0.628055  0.933998  0.839929  1
  O  O39  1  0.302087  0.597841  0.170857  1
  O  O40  1  0.370487  0.066096  0.159988  1
  O  O41  1  0.853191  0.105123  0.684294  1
  O  O42  1  0.975890  0.262499  0.491823  1
