# generated using pymatgen
data_Li3Mn4O8
_symmetry_space_group_name_H-M   'P 1'
_cell_length_a   5.72149228
_cell_length_b   8.71311135
_cell_length_c   13.01368283
_cell_angle_alpha   86.95548469
_cell_angle_beta   89.96847853
_cell_angle_gamma   89.99426711
_symmetry_Int_Tables_number   1
_chemical_formula_structural   Li3Mn4O8
_chemical_formula_sum   'Li12 Mn16 O32'
_cell_volume   647.84233266
_cell_formula_units_Z   4
loop_
 _symmetry_equiv_pos_site_id
 _symmetry_equiv_pos_as_xyz
  1  'x, y, z'
loop_
 _atom_site_type_symbol
 _atom_site_label
 _atom_site_symmetry_multiplicity
 _atom_site_fract_x
 _atom_site_fract_y
 _atom_site_fract_z
 _atom_site_occupancy
  Li  Li1  1  0.743034  0.579559  0.542068  1
  Li  Li2  1  0.505586  0.533600  0.301083  1
  Li  Li3  1  0.981725  0.534735  0.299402  1
  Li  Li4  1  0.701316  0.040414  0.025311  1
  Li  Li5  1  0.248045  0.035742  0.787765  1
  Li  Li6  1  0.740206  0.006345  0.820413  1
  Li  Li7  1  0.243199  0.421171  0.458163  1
  Li  Li8  1  0.004879  0.466592  0.698702  1
  Li  Li9  1  0.480498  0.465659  0.700185  1
  Li  Li10  1  0.241210  0.990260  0.182781  1
  Li  Li11  1  0.750380  0.964272  0.212956  1
  Li  Li12  1  0.203004  0.961505  0.976168  1
  Mn  Mn13  1  0.492497  0.791594  0.404315  1
  Mn  Mn14  1  0.993854  0.792911  0.403819  1
  Mn  Mn15  1  0.488074  0.664172  0.844403  1
  Mn  Mn16  1  0.991869  0.664911  0.840119  1
  Mn  Mn17  1  0.988334  0.336248  0.155379  1
  Mn  Mn18  1  0.491607  0.335274  0.159879  1
  Mn  Mn19  1  0.992117  0.208367  0.595712  1
  Mn  Mn20  1  0.492853  0.207025  0.596230  1
  Mn  Mn21  1  0.244213  0.286525  0.908586  1
  Mn  Mn22  1  0.742836  0.288073  0.902648  1
  Mn  Mn23  1  0.243991  0.164726  0.340154  1
  Mn  Mn24  1  0.746652  0.173822  0.346718  1
  Mn  Mn25  1  0.245945  0.826582  0.653108  1
  Mn  Mn26  1  0.742538  0.835578  0.659248  1
  Mn  Mn27  1  0.243816  0.711566  0.096705  1
  Mn  Mn28  1  0.744885  0.713474  0.091192  1
  O  O29  1  0.239766  0.068961  0.631359  1
  O  O30  1  0.744573  0.059411  0.625176  1
  O  O31  1  0.243617  0.286684  0.069638  1
  O  O32  1  0.729682  0.275779  0.066049  1
  O  O33  1  0.230086  0.724679  0.933329  1
  O  O34  1  0.743637  0.714369  0.930043  1
  O  O35  1  0.245336  0.939329  0.371645  1
  O  O36  1  0.740662  0.930835  0.369045  1
  O  O37  1  0.994138  0.577507  0.134375  1
  O  O38  1  0.493128  0.568274  0.132991  1
  O  O39  1  0.985551  0.773337  0.568050  1
  O  O40  1  0.509009  0.770916  0.566568  1
  O  O41  1  0.485709  0.226067  0.432159  1
  O  O42  1  0.010321  0.227957  0.433837  1
  O  O43  1  0.493337  0.422134  0.864952  1
  O  O44  1  0.992489  0.431570  0.866332  1
  O  O45  1  0.492090  0.126978  0.900014  1
  O  O46  1  0.994101  0.129614  0.899737  1
  O  O47  1  0.992026  0.123025  0.246733  1
  O  O48  1  0.491420  0.131014  0.236120  1
  O  O49  1  0.993075  0.872600  0.100546  1
  O  O50  1  0.494743  0.869959  0.100518  1
  O  O51  1  0.491223  0.878496  0.753242  1
  O  O52  1  0.990280  0.869649  0.763701  1
  O  O53  1  0.242214  0.638155  0.387851  1
  O  O54  1  0.744307  0.639214  0.392240  1
  O  O55  1  0.242044  0.618280  0.746370  1
  O  O56  1  0.746876  0.628652  0.733480  1
  O  O57  1  0.243533  0.360388  0.607732  1
  O  O58  1  0.741498  0.361422  0.612791  1
  O  O59  1  0.248045  0.371746  0.266857  1
  O  O60  1  0.742329  0.382361  0.253341  1
