# generated using pymatgen
data_Li3Mn4O8
_symmetry_space_group_name_H-M   'P 1'
_cell_length_a   5.72432821
_cell_length_b   9.37672303
_cell_length_c   12.28182164
_cell_angle_alpha   88.59412243
_cell_angle_beta   89.96666886
_cell_angle_gamma   89.81990991
_symmetry_Int_Tables_number   1
_chemical_formula_structural   Li3Mn4O8
_chemical_formula_sum   'Li12 Mn16 O32'
_cell_volume   659.03039990
_cell_formula_units_Z   4
loop_
 _symmetry_equiv_pos_site_id
 _symmetry_equiv_pos_as_xyz
  1  'x, y, z'
loop_
 _atom_site_type_symbol
 _atom_site_label
 _atom_site_symmetry_multiplicity
 _atom_site_fract_x
 _atom_site_fract_y
 _atom_site_fract_z
 _atom_site_occupancy
  Li  Li1  1  0.739421  0.638672  0.550624  1
  Li  Li2  1  0.508066  0.542164  0.312266  1
  Li  Li3  1  0.976415  0.539668  0.313790  1
  Li  Li4  1  0.728878  0.113293  0.064438  1
  Li  Li5  1  0.239920  0.065502  0.794872  1
  Li  Li6  1  0.747779  0.032930  0.824092  1
  Li  Li7  1  0.240710  0.361421  0.449564  1
  Li  Li8  1  0.006358  0.458673  0.687650  1
  Li  Li9  1  0.474994  0.459617  0.686406  1
  Li  Li10  1  0.240822  0.967201  0.175661  1
  Li  Li11  1  0.731654  0.934021  0.205143  1
  Li  Li12  1  0.252830  0.886745  0.935706  1
  Mn  Mn13  1  0.489104  0.804835  0.395103  1
  Mn  Mn14  1  0.993727  0.804079  0.395170  1
  Mn  Mn15  1  0.492564  0.652032  0.835956  1
  Mn  Mn16  1  0.993706  0.651149  0.838269  1
  Mn  Mn17  1  0.991273  0.347324  0.164025  1
  Mn  Mn18  1  0.492421  0.349703  0.161811  1
  Mn  Mn19  1  0.989189  0.195321  0.605260  1
  Mn  Mn20  1  0.493706  0.195731  0.604678  1
  Mn  Mn21  1  0.242661  0.305027  0.898961  1
  Mn  Mn22  1  0.744841  0.305653  0.886693  1
  Mn  Mn23  1  0.242373  0.147941  0.329035  1
  Mn  Mn24  1  0.740592  0.159304  0.335674  1
  Mn  Mn25  1  0.240704  0.840771  0.664149  1
  Mn  Mn26  1  0.742707  0.852236  0.670983  1
  Mn  Mn27  1  0.240221  0.694289  0.113212  1
  Mn  Mn28  1  0.739142  0.695041  0.101148  1
  O  O29  1  0.243593  0.067411  0.639158  1
  O  O30  1  0.740098  0.061560  0.650574  1
  O  O31  1  0.240026  0.318672  0.065549  1
  O  O32  1  0.750228  0.314898  0.060566  1
  O  O33  1  0.250605  0.684743  0.939466  1
  O  O34  1  0.740367  0.681034  0.934532  1
  O  O35  1  0.239190  0.938473  0.349185  1
  O  O36  1  0.742571  0.932455  0.360803  1
  O  O37  1  0.990464  0.560533  0.149405  1
  O  O38  1  0.492076  0.570025  0.149644  1
  O  O39  1  0.978190  0.806815  0.567008  1
  O  O40  1  0.501894  0.807036  0.568039  1
  O  O41  1  0.477652  0.192846  0.432881  1
  O  O42  1  0.001363  0.193167  0.431973  1
  O  O43  1  0.493086  0.439006  0.850611  1
  O  O44  1  0.994723  0.430652  0.850490  1
  O  O45  1  0.495432  0.160886  0.888451  1
  O  O46  1  0.994665  0.160498  0.884832  1
  O  O47  1  0.986947  0.136240  0.216686  1
  O  O48  1  0.500077  0.121688  0.223035  1
  O  O49  1  0.989128  0.838190  0.114338  1
  O  O50  1  0.488184  0.840403  0.111859  1
  O  O51  1  0.486115  0.864818  0.783723  1
  O  O52  1  0.999424  0.877602  0.776410  1
  O  O53  1  0.242630  0.661816  0.380627  1
  O  O54  1  0.741745  0.659498  0.392725  1
  O  O55  1  0.242273  0.624429  0.730557  1
  O  O56  1  0.739724  0.640932  0.719541  1
  O  O57  1  0.240438  0.340427  0.607449  1
  O  O58  1  0.741121  0.338114  0.619487  1
  O  O59  1  0.238517  0.359166  0.280549  1
  O  O60  1  0.740679  0.375685  0.269550  1
