# generated using pymatgen
data_Li2Mn15O32
_symmetry_space_group_name_H-M   'P 1'
_cell_length_a   5.83149207
_cell_length_b   5.83149245
_cell_length_c   23.36485436
_cell_angle_alpha   60.05504053
_cell_angle_beta   60.05503835
_cell_angle_gamma   60.00000284
_symmetry_Int_Tables_number   1
_chemical_formula_structural   Li2Mn15O32
_chemical_formula_sum   'Li2 Mn15 O32'
_cell_volume   562.30027359
_cell_formula_units_Z   1
loop_
 _symmetry_equiv_pos_site_id
 _symmetry_equiv_pos_as_xyz
  1  'x, y, z'
loop_
 _atom_site_type_symbol
 _atom_site_label
 _atom_site_symmetry_multiplicity
 _atom_site_fract_x
 _atom_site_fract_y
 _atom_site_fract_z
 _atom_site_occupancy
  Li  Li1  1  0.124242  0.124242  0.031818  1
  Li  Li2  1  0.878009  0.878009  0.966493  1
  Mn  Mn3  1  0.008326  0.499644  0.123096  1
  Mn  Mn4  1  0.499644  0.499644  0.123096  1
  Mn  Mn5  1  0.007244  0.496890  0.374744  1
  Mn  Mn6  1  0.499644  0.008326  0.123096  1
  Mn  Mn7  1  0.496890  0.496890  0.374744  1
  Mn  Mn8  1  0.999824  0.500190  0.624949  1
  Mn  Mn9  1  0.501268  0.501268  0.499049  1
  Mn  Mn10  1  0.880865  0.880865  0.214351  1
  Mn  Mn11  1  0.496890  0.007244  0.374744  1
  Mn  Mn12  1  0.500190  0.500190  0.624949  1
  Mn  Mn13  1  0.993804  0.500683  0.876208  1
  Mn  Mn14  1  0.500190  0.999824  0.624949  1
  Mn  Mn15  1  0.498332  0.498332  0.751251  1
  Mn  Mn16  1  0.500683  0.500683  0.876208  1
  Mn  Mn17  1  0.500683  0.993804  0.876208  1
  O  O18  1  0.245853  0.245853  0.073189  1
  O  O19  1  0.264544  0.264544  0.176592  1
  O  O20  1  0.245853  0.715540  0.073189  1
  O  O21  1  0.715540  0.245853  0.073189  1
  O  O22  1  0.243907  0.243907  0.324882  1
  O  O23  1  0.284635  0.747487  0.180098  1
  O  O24  1  0.263009  0.263009  0.427743  1
  O  O25  1  0.243907  0.712656  0.324882  1
  O  O26  1  0.737167  0.737167  0.072125  1
  O  O27  1  0.747487  0.284635  0.180098  1
  O  O28  1  0.712656  0.243907  0.324882  1
  O  O29  1  0.747487  0.747487  0.180098  1
  O  O30  1  0.265341  0.265341  0.566032  1
  O  O31  1  0.297674  0.734701  0.433231  1
  O  O32  1  0.265268  0.265268  0.676049  1
  O  O33  1  0.265341  0.705190  0.566032  1
  O  O34  1  0.740005  0.740005  0.319996  1
  O  O35  1  0.734701  0.297674  0.433231  1
  O  O36  1  0.705190  0.265341  0.566032  1
  O  O37  1  0.734701  0.734701  0.433231  1
  O  O38  1  0.265549  0.265549  0.816701  1
  O  O39  1  0.295234  0.735236  0.683573  1
  O  O40  1  0.261681  0.261681  0.928739  1
  O  O41  1  0.735059  0.735059  0.573706  1
  O  O42  1  0.265549  0.702098  0.816701  1
  O  O43  1  0.735236  0.295234  0.683573  1
  O  O44  1  0.702098  0.265549  0.816701  1
  O  O45  1  0.735236  0.735236  0.683573  1
  O  O46  1  0.282445  0.757380  0.925699  1
  O  O47  1  0.735158  0.735158  0.823631  1
  O  O48  1  0.757380  0.282445  0.925699  1
  O  O49  1  0.757380  0.757380  0.925699  1
