# generated using pymatgen
data_Li6Bi2O7
_symmetry_space_group_name_H-M   'P 1'
_cell_length_a   10.46406181
_cell_length_b   6.30793280
_cell_length_c   5.59324790
_cell_angle_alpha   90.00000000
_cell_angle_beta   79.08230697
_cell_angle_gamma   90.00000000
_symmetry_Int_Tables_number   1
_chemical_formula_structural   Li6Bi2O7
_chemical_formula_sum   'Li12 Bi4 O14'
_cell_volume   362.50900868
_cell_formula_units_Z   2
loop_
 _symmetry_equiv_pos_site_id
 _symmetry_equiv_pos_as_xyz
  1  'x, y, z'
loop_
 _atom_site_type_symbol
 _atom_site_label
 _atom_site_symmetry_multiplicity
 _atom_site_fract_x
 _atom_site_fract_y
 _atom_site_fract_z
 _atom_site_occupancy
  Li  Li1  1  0.149301  0.785234  0.648630  1
  Li  Li2  1  0.140098  0.240120  0.645751  1
  Li  Li3  1  0.120983  0.491467  0.034255  1
  Li  Li4  1  0.359902  0.740120  0.854249  1
  Li  Li5  1  0.350699  0.285234  0.851370  1
  Li  Li6  1  0.379017  0.991467  0.465745  1
  Li  Li7  1  0.620983  0.008533  0.534255  1
  Li  Li8  1  0.649301  0.714766  0.148630  1
  Li  Li9  1  0.640098  0.259880  0.145751  1
  Li  Li10  1  0.879017  0.508533  0.965745  1
  Li  Li11  1  0.859902  0.759880  0.354249  1
  Li  Li12  1  0.850699  0.214766  0.351370  1
  Bi  Bi13  1  0.132457  0.009811  0.137799  1
  Bi  Bi14  1  0.367543  0.509811  0.362201  1
  Bi  Bi15  1  0.632457  0.490189  0.637799  1
  Bi  Bi16  1  0.867543  0.990189  0.862201  1
  O  O17  1  0.000000  0.000000  0.500000  1
  O  O18  1  0.005869  0.751724  0.013886  1
  O  O19  1  0.253696  0.013819  0.776577  1
  O  O20  1  0.246304  0.513819  0.723423  1
  O  O21  1  0.225407  0.302314  0.238585  1
  O  O22  1  0.274593  0.802314  0.261415  1
  O  O23  1  0.494131  0.251724  0.486114  1
  O  O24  1  0.505869  0.748276  0.513886  1
  O  O25  1  0.500000  0.500000  0.000000  1
  O  O26  1  0.725407  0.197686  0.738584  1
  O  O27  1  0.774593  0.697686  0.761416  1
  O  O28  1  0.753696  0.486181  0.276577  1
  O  O29  1  0.746304  0.986181  0.223423  1
  O  O30  1  0.994131  0.248276  0.986114  1
