# generated using pymatgen
data_KC8
_symmetry_space_group_name_H-M   'P 1'
_cell_length_a   4.98163656
_cell_length_b   4.98163682
_cell_length_c   11.00482640
_cell_angle_alpha   96.47616201
_cell_angle_beta   96.47617545
_cell_angle_gamma   120.07277499
_symmetry_Int_Tables_number   1
_chemical_formula_structural   KC8
_chemical_formula_sum   'K2 C16'
_cell_volume   230.23558360
_cell_formula_units_Z   2
loop_
 _symmetry_equiv_pos_site_id
 _symmetry_equiv_pos_as_xyz
  1  'x, y, z'
loop_
 _atom_site_type_symbol
 _atom_site_label
 _atom_site_symmetry_multiplicity
 _atom_site_fract_x
 _atom_site_fract_y
 _atom_site_fract_z
 _atom_site_occupancy
  K  K1  1  0.875000  0.125000  0.250000  1
  K  K2  1  0.125000  0.875000  0.750000  1
  C  C3  1  0.083836  0.166468  0.000101  1
  C  C4  1  0.166362  0.583732  0.499894  1
  C  C5  1  0.833532  0.916164  0.499899  1
  C  C6  1  0.416268  0.833637  0.000106  1
  C  C7  1  0.916164  0.833532  0.999899  1
  C  C8  1  0.833638  0.416268  0.500106  1
  C  C9  1  0.166468  0.083836  0.500101  1
  C  C10  1  0.583732  0.166363  0.999894  1
  C  C11  1  0.582765  0.665363  0.998260  1
  C  C12  1  0.667065  0.084469  0.501744  1
  C  C13  1  0.334637  0.417235  0.501740  1
  C  C14  1  0.915531  0.332935  0.998256  1
  C  C15  1  0.417235  0.334637  0.001740  1
  C  C16  1  0.332935  0.915531  0.498256  1
  C  C17  1  0.665363  0.582765  0.498260  1
  C  C18  1  0.084469  0.667065  0.001744  1
