# generated using pymatgen
data_LiMnO2
_symmetry_space_group_name_H-M   'P 1'
_cell_length_a   5.76717447
_cell_length_b   5.76717508
_cell_length_c   6.56879950
_cell_angle_alpha   119.03540961
_cell_angle_beta   119.03541409
_cell_angle_gamma   88.84041497
_symmetry_Int_Tables_number   1
_chemical_formula_structural   LiMnO2
_chemical_formula_sum   'Li4 Mn4 O8'
_cell_volume   160.25127872
_cell_formula_units_Z   4
loop_
 _symmetry_equiv_pos_site_id
 _symmetry_equiv_pos_as_xyz
  1  'x, y, z'
loop_
 _atom_site_type_symbol
 _atom_site_label
 _atom_site_symmetry_multiplicity
 _atom_site_fract_x
 _atom_site_fract_y
 _atom_site_fract_z
 _atom_site_occupancy
  Li  Li1  1  0.000000  0.000000  0.500000  1
  Li  Li2  1  0.000000  0.000000  0.000000  1
  Li  Li3  1  0.196328  0.803672  0.250000  1
  Li  Li4  1  0.803672  0.196328  0.750000  1
  Mn  Mn5  1  0.000000  0.500000  0.500000  1
  Mn  Mn6  1  0.500000  0.500000  0.500000  1
  Mn  Mn7  1  0.500000  0.000000  0.000000  1
  Mn  Mn8  1  0.500000  0.500000  0.000000  1
  O  O9  1  0.261024  0.741925  0.972346  1
  O  O10  1  0.248478  0.254761  0.482139  1
  O  O11  1  0.258075  0.738976  0.527654  1
  O  O12  1  0.254761  0.248478  0.982139  1
  O  O13  1  0.745239  0.751522  0.017861  1
  O  O14  1  0.741925  0.261024  0.472346  1
  O  O15  1  0.751522  0.745239  0.517861  1
  O  O16  1  0.738976  0.258075  0.027654  1
