# generated using pymatgen
data_Li2Mn3O6
_symmetry_space_group_name_H-M   'P 1'
_cell_length_a   7.28573956
_cell_length_b   5.75243580
_cell_length_c   10.46817883
_cell_angle_alpha   92.99554200
_cell_angle_beta   84.39971482
_cell_angle_gamma   88.47866748
_symmetry_Int_Tables_number   1
_chemical_formula_structural   Li2Mn3O6
_chemical_formula_sum   'Li8 Mn12 O24'
_cell_volume   435.81736794
_cell_formula_units_Z   4
loop_
 _symmetry_equiv_pos_site_id
 _symmetry_equiv_pos_as_xyz
  1  'x, y, z'
loop_
 _atom_site_type_symbol
 _atom_site_label
 _atom_site_symmetry_multiplicity
 _atom_site_fract_x
 _atom_site_fract_y
 _atom_site_fract_z
 _atom_site_occupancy
  Li  Li1  1  0.357008  0.877641  0.217295  1
  Li  Li2  1  0.355433  0.880513  0.718815  1
  Li  Li3  1  0.649367  0.880843  0.026964  1
  Li  Li4  1  0.691864  0.126571  0.300485  1
  Li  Li5  1  0.647517  0.875623  0.537174  1
  Li  Li6  1  0.984906  0.124480  0.124268  1
  Li  Li7  1  0.970943  0.117291  0.619195  1
  Li  Li8  1  0.974235  0.359365  0.853855  1
  Mn  Mn9  1  0.008910  0.617835  0.117817  1
  Mn  Mn10  1  0.008834  0.617743  0.612422  1
  Mn  Mn11  1  0.328882  0.383342  0.222783  1
  Mn  Mn12  1  0.332688  0.118023  0.460421  1
  Mn  Mn13  1  0.334287  0.381956  0.721246  1
  Mn  Mn14  1  0.334137  0.113091  0.960048  1
  Mn  Mn15  1  0.664368  0.365088  0.031989  1
  Mn  Mn16  1  0.662790  0.630316  0.297631  1
  Mn  Mn17  1  0.673431  0.363739  0.537323  1
  Mn  Mn18  1  0.658326  0.633840  0.795814  1
  Mn  Mn19  1  0.003793  0.879905  0.375305  1
  Mn  Mn20  1  0.996431  0.877626  0.874150  1
  O  O21  1  0.131439  0.858465  0.024394  1
  O  O22  1  0.181429  0.351005  0.071504  1
  O  O23  1  0.165644  0.648307  0.269953  1
  O  O24  1  0.135134  0.862852  0.524813  1
  O  O25  1  0.198943  0.139914  0.309125  1
  O  O26  1  0.182230  0.350449  0.571806  1
  O  O27  1  0.156852  0.634876  0.773008  1
  O  O28  1  0.193709  0.143914  0.810261  1
  O  O29  1  0.486205  0.142624  0.107851  1
  O  O30  1  0.516909  0.605343  0.145846  1
  O  O31  1  0.503426  0.387064  0.361511  1
  O  O32  1  0.513431  0.892540  0.368387  1
  O  O33  1  0.483376  0.143830  0.607004  1
  O  O34  1  0.516822  0.605869  0.646605  1
  O  O35  1  0.498345  0.397000  0.863606  1
  O  O36  1  0.509228  0.887363  0.871148  1
  O  O37  1  0.825292  0.404288  0.193670  1
  O  O38  1  0.850632  0.857218  0.226084  1
  O  O39  1  0.824465  0.106855  0.465503  1
  O  O40  1  0.806625  0.611304  0.452859  1
  O  O41  1  0.834996  0.408321  0.696851  1
  O  O42  1  0.851051  0.851798  0.722882  1
  O  O43  1  0.840609  0.124739  0.967220  1
  O  O44  1  0.807531  0.610166  0.948114  1
