# generated using pymatgen
data_Li3Mn4O8
_symmetry_space_group_name_H-M   'P 1'
_cell_length_a   5.71751256
_cell_length_b   5.90597778
_cell_length_c   10.01516360
_cell_angle_alpha   85.71659193
_cell_angle_beta   89.99982995
_cell_angle_gamma   61.04927896
_symmetry_Int_Tables_number   1
_chemical_formula_structural   Li3Mn4O8
_chemical_formula_sum   'Li6 Mn8 O16'
_cell_volume   294.84602696
_cell_formula_units_Z   2
loop_
 _symmetry_equiv_pos_site_id
 _symmetry_equiv_pos_as_xyz
  1  'x, y, z'
loop_
 _atom_site_type_symbol
 _atom_site_label
 _atom_site_symmetry_multiplicity
 _atom_site_fract_x
 _atom_site_fract_y
 _atom_site_fract_z
 _atom_site_occupancy
  Li  Li1  1  0.496912  0.474215  0.000172  1
  Li  Li2  1  0.503074  0.525825  0.499840  1
  Li  Li3  1  0.028869  0.474227  0.000166  1
  Li  Li4  1  0.971115  0.525820  0.499845  1
  Li  Li5  1  0.500007  0.999977  0.249995  1
  Li  Li6  1  0.999987  0.000001  0.749974  1
  Mn  Mn7  1  0.500005  0.499991  0.749993  1
  Mn  Mn8  1  0.500009  0.499999  0.250014  1
  Mn  Mn9  1  0.000022  0.499989  0.749995  1
  Mn  Mn10  1  -0.000016  0.500000  0.250014  1
  Mn  Mn11  1  0.528267  0.943458  0.980873  1
  Mn  Mn12  1  0.471741  0.056525  0.519103  1
  Mn  Mn13  1  0.999367  0.001255  0.027653  1
  Mn  Mn14  1  0.000624  0.998757  0.472332  1
  O  O15  1  0.314034  0.371940  0.638342  1
  O  O16  1  0.324950  0.350098  0.151136  1
  O  O17  1  0.819327  0.361364  0.645074  1
  O  O18  1  0.828565  0.342861  0.149969  1
  O  O19  1  0.316681  0.851113  0.594476  1
  O  O20  1  0.357788  0.803432  0.111105  1
  O  O21  1  0.832217  0.851113  0.594473  1
  O  O22  1  0.838769  0.803436  0.111098  1
  O  O23  1  0.685970  0.628078  0.861665  1
  O  O24  1  0.675050  0.649892  0.348871  1
  O  O25  1  0.180662  0.638673  0.854932  1
  O  O26  1  0.171428  0.657136  0.350047  1
  O  O27  1  0.683281  0.148930  0.905528  1
  O  O28  1  0.642201  0.196563  0.388882  1
  O  O29  1  0.167776  0.148932  0.905534  1
  O  O30  1  0.161241  0.196554  0.388886  1
