# generated using pymatgen
data_Li3Mn4O8
_symmetry_space_group_name_H-M   'P 1'
_cell_length_a   5.76570667
_cell_length_b   9.95523088
_cell_length_c   11.44135950
_cell_angle_alpha   91.48276333
_cell_angle_beta   90.01613457
_cell_angle_gamma   90.02148172
_symmetry_Int_Tables_number   1
_chemical_formula_structural   Li3Mn4O8
_chemical_formula_sum   'Li12 Mn16 O32'
_cell_volume   656.50194649
_cell_formula_units_Z   4
loop_
 _symmetry_equiv_pos_site_id
 _symmetry_equiv_pos_as_xyz
  1  'x, y, z'
loop_
 _atom_site_type_symbol
 _atom_site_label
 _atom_site_symmetry_multiplicity
 _atom_site_fract_x
 _atom_site_fract_y
 _atom_site_fract_z
 _atom_site_occupancy
  Li  Li1  1  0.748610  0.655276  0.540734  1
  Li  Li2  1  0.499845  0.530926  0.317952  1
  Li  Li3  1  0.984863  0.534709  0.315030  1
  Li  Li4  1  0.740934  0.127681  0.092860  1
  Li  Li5  1  0.246307  0.066662  0.796041  1
  Li  Li6  1  0.744344  0.053264  0.813582  1
  Li  Li7  1  0.235055  0.345071  0.459367  1
  Li  Li8  1  0.998182  0.465338  0.684994  1
  Li  Li9  1  0.483255  0.469208  0.681934  1
  Li  Li10  1  0.238112  0.946761  0.186467  1
  Li  Li11  1  0.736019  0.933035  0.203955  1
  Li  Li12  1  0.243018  0.872117  0.907442  1
  Mn  Mn13  1  0.489368  0.804846  0.377538  1
  Mn  Mn14  1  0.992039  0.806365  0.372249  1
  Mn  Mn15  1  0.494643  0.658632  0.838754  1
  Mn  Mn16  1  0.990760  0.655618  0.841239  1
  Mn  Mn17  1  0.992224  0.344265  0.158675  1
  Mn  Mn18  1  0.488386  0.341114  0.161157  1
  Mn  Mn19  1  0.991745  0.193787  0.627779  1
  Mn  Mn20  1  0.494557  0.195303  0.622584  1
  Mn  Mn21  1  0.244232  0.325295  0.875674  1
  Mn  Mn22  1  0.741393  0.326398  0.864221  1
  Mn  Mn23  1  0.235728  0.140706  0.334988  1
  Mn  Mn24  1  0.738646  0.157990  0.342844  1
  Mn  Mn25  1  0.245199  0.842061  0.657221  1
  Mn  Mn26  1  0.748272  0.859535  0.665076  1
  Mn  Mn27  1  0.241595  0.673465  0.135666  1
  Mn  Mn28  1  0.738647  0.674562  0.124232  1
  O  O29  1  0.243736  0.066626  0.632682  1
  O  O30  1  0.743100  0.066617  0.640694  1
  O  O31  1  0.242229  0.303167  0.054389  1
  O  O32  1  0.738274  0.303749  0.050111  1
  O  O33  1  0.244680  0.695928  0.949812  1
  O  O34  1  0.740689  0.696537  0.945555  1
  O  O35  1  0.240645  0.933569  0.359207  1
  O  O36  1  0.740047  0.933534  0.367302  1
  O  O37  1  0.989021  0.550677  0.139362  1
  O  O38  1  0.490343  0.539172  0.144321  1
  O  O39  1  0.989111  0.801453  0.547866  1
  O  O40  1  0.506248  0.803366  0.559642  1
  O  O41  1  0.477710  0.196989  0.440416  1
  O  O42  1  0.994831  0.198885  0.452219  1
  O  O43  1  0.492539  0.460658  0.855599  1
  O  O44  1  0.993868  0.449175  0.860674  1
  O  O45  1  0.492958  0.191617  0.846337  1
  O  O46  1  0.995438  0.194534  0.819336  1
  O  O47  1  0.976609  0.114340  0.220318  1
  O  O48  1  0.497449  0.132843  0.212440  1
  O  O49  1  0.987584  0.805366  0.180587  1
  O  O50  1  0.489931  0.808242  0.153417  1
  O  O51  1  0.486168  0.867105  0.787617  1
  O  O52  1  0.007219  0.885792  0.779815  1
  O  O53  1  0.240755  0.670522  0.355856  1
  O  O54  1  0.742625  0.666602  0.370574  1
  O  O55  1  0.242201  0.632786  0.725348  1
  O  O56  1  0.742859  0.633343  0.718677  1
  O  O57  1  0.241027  0.333570  0.629537  1
  O  O58  1  0.742960  0.329597  0.644250  1
  O  O59  1  0.240301  0.366571  0.281264  1
  O  O60  1  0.740871  0.367145  0.274560  1
