# generated using pymatgen
data_Li3Mn3O8
_symmetry_space_group_name_H-M   'P 1'
_cell_length_a   5.92170252
_cell_length_b   5.92170275
_cell_length_c   5.92170296
_cell_angle_alpha   58.83210845
_cell_angle_beta   58.83211207
_cell_angle_gamma   58.83211087
_symmetry_Int_Tables_number   1
_chemical_formula_structural   Li3Mn3O8
_chemical_formula_sum   'Li3 Mn3 O8'
_cell_volume   142.91791689
_cell_formula_units_Z   1
loop_
 _symmetry_equiv_pos_site_id
 _symmetry_equiv_pos_as_xyz
  1  'x, y, z'
loop_
 _atom_site_type_symbol
 _atom_site_label
 _atom_site_symmetry_multiplicity
 _atom_site_fract_x
 _atom_site_fract_y
 _atom_site_fract_z
 _atom_site_occupancy
  Li  Li1  1  0.003758  0.003758  0.003758  1
  Li  Li2  1  0.246242  0.246242  0.246242  1
  Li  Li3  1  0.625000  0.625000  0.625000  1
  Mn  Mn4  1  0.125000  0.625000  0.625000  1
  Mn  Mn5  1  0.625000  0.125000  0.625000  1
  Mn  Mn6  1  0.625000  0.625000  0.125000  1
  O  O7  1  0.387378  0.387378  0.387378  1
  O  O8  1  0.376087  0.376087  0.833557  1
  O  O9  1  0.376087  0.833557  0.376087  1
  O  O10  1  0.833557  0.376087  0.376087  1
  O  O11  1  0.416443  0.873913  0.873913  1
  O  O12  1  0.873913  0.873913  0.416443  1
  O  O13  1  0.873913  0.416443  0.873913  1
  O  O14  1  0.862622  0.862622  0.862622  1
