# generated using pymatgen
data_LiMn3O4
_symmetry_space_group_name_H-M   'P 1'
_cell_length_a   6.11973602
_cell_length_b   6.11973602
_cell_length_c   6.25152252
_cell_angle_alpha   119.50984111
_cell_angle_beta   119.50984111
_cell_angle_gamma   89.52224938
_symmetry_Int_Tables_number   1
_chemical_formula_structural   LiMn3O4
_chemical_formula_sum   'Li2 Mn6 O8'
_cell_volume   168.62337465
_cell_formula_units_Z   2
loop_
 _symmetry_equiv_pos_site_id
 _symmetry_equiv_pos_as_xyz
  1  'x, y, z'
loop_
 _atom_site_type_symbol
 _atom_site_label
 _atom_site_symmetry_multiplicity
 _atom_site_fract_x
 _atom_site_fract_y
 _atom_site_fract_z
 _atom_site_occupancy
  Li  Li1  1  0.000000  0.500000  0.000000  1
  Li  Li2  1  0.500000  0.000000  0.500000  1
  Mn  Mn3  1  0.000000  0.000000  0.000000  1
  Mn  Mn4  1  0.500000  0.500000  0.000000  1
  Mn  Mn5  1  0.500000  0.500000  0.500000  1
  Mn  Mn6  1  0.500000  0.000000  0.000000  1
  Mn  Mn7  1  0.000000  0.500000  0.500000  1
  Mn  Mn8  1  0.000000  0.000000  0.500000  1
  O  O9  1  0.260987  0.760379  0.997233  1
  O  O10  1  0.249022  0.250351  0.499055  1
  O  O11  1  0.239621  0.739013  0.502767  1
  O  O12  1  0.749649  0.750978  0.000945  1
  O  O13  1  0.250351  0.249022  0.999055  1
  O  O14  1  0.760379  0.260987  0.497233  1
  O  O15  1  0.750978  0.749649  0.500945  1
  O  O16  1  0.739013  0.239621  0.002767  1
