# generated using pymatgen
data_LiMn2O4
_symmetry_space_group_name_H-M   'P 1'
_cell_length_a   5.81240965
_cell_length_b   5.81193432
_cell_length_c   14.24257427
_cell_angle_alpha   87.82165667
_cell_angle_beta   87.82136863
_cell_angle_gamma   60.17342940
_symmetry_Int_Tables_number   1
_chemical_formula_structural   LiMn2O4
_chemical_formula_sum   'Li6 Mn12 O24'
_cell_volume   416.99693184
_cell_formula_units_Z   6
loop_
 _symmetry_equiv_pos_site_id
 _symmetry_equiv_pos_as_xyz
  1  'x, y, z'
loop_
 _atom_site_type_symbol
 _atom_site_label
 _atom_site_symmetry_multiplicity
 _atom_site_fract_x
 _atom_site_fract_y
 _atom_site_fract_z
 _atom_site_occupancy
  Li  Li1  1  0.521776  0.546149  0.818470  1
  Li  Li2  1  0.060046  0.016931  0.809084  1
  Li  Li3  1  0.296093  0.771520  0.318475  1
  Li  Li4  1  0.766895  0.309714  0.309134  1
  Li  Li5  1  0.713294  0.224086  0.677800  1
  Li  Li6  1  0.974069  0.963317  0.177802  1
  Mn  Mn7  1  0.239164  0.736074  0.508858  1
  Mn  Mn8  1  0.753638  0.249655  0.495552  1
  Mn  Mn9  1  0.529419  0.026530  0.841929  1
  Mn  Mn10  1  0.026623  0.529714  0.840175  1
  Mn  Mn11  1  0.476084  0.976693  0.154427  1
  Mn  Mn12  1  0.976326  0.476993  0.155113  1
  Mn  Mn13  1  0.485918  0.489381  0.008879  1
  Mn  Mn14  1  -0.000238  0.004164  0.995499  1
  Mn  Mn15  1  0.279386  0.276609  0.340389  1
  Mn  Mn16  1  0.776204  0.779239  0.342000  1
  Mn  Mn17  1  0.227281  0.226090  0.654870  1
  Mn  Mn18  1  0.726839  0.726198  0.654250  1
  O  O19  1  0.305996  0.822661  0.074978  1
  O  O20  1  0.823302  0.310530  0.079337  1
  O  O21  1  0.677477  0.191641  0.919547  1
  O  O22  1  0.189026  0.683672  0.915736  1
  O  O23  1  0.572476  0.556004  0.574933  1
  O  O24  1  0.060403  0.073257  0.579308  1
  O  O25  1  0.433360  0.438971  0.415783  1
  O  O26  1  0.941309  0.927424  0.419590  1
  O  O27  1  0.821826  0.816324  0.093221  1
  O  O28  1  0.310254  0.315634  0.092027  1
  O  O29  1  0.689192  0.685103  0.902247  1
  O  O30  1  0.181376  0.185178  0.900418  1
  O  O31  1  0.566414  0.071786  0.593094  1
  O  O32  1  0.065765  0.560070  0.591880  1
  O  O33  1  0.434842  0.938884  0.402395  1
  O  O34  1  0.934893  0.431165  0.400547  1
  O  O35  1  0.645246  0.650424  0.239160  1
  O  O36  1  0.142943  0.144439  0.238264  1
  O  O37  1  0.856526  0.868367  0.766663  1
  O  O38  1  0.365112  0.353635  0.762845  1
  O  O39  1  0.400704  0.895294  0.739059  1
  O  O40  1  0.894609  0.393000  0.738183  1
  O  O41  1  0.618099  0.106395  0.266821  1
  O  O42  1  0.103422  0.614999  0.263007  1
