# generated using pymatgen
data_Li7Mn11O24
_symmetry_space_group_name_H-M   'P 1'
_cell_length_a   5.81437345
_cell_length_b   17.65887758
_cell_length_c   10.33791053
_cell_angle_alpha   29.77861605
_cell_angle_beta   55.66812774
_cell_angle_gamma   59.97164440
_symmetry_Int_Tables_number   1
_chemical_formula_structural   Li7Mn11O24
_chemical_formula_sum   'Li7 Mn11 O24'
_cell_volume   435.17325449
_cell_formula_units_Z   1
loop_
 _symmetry_equiv_pos_site_id
 _symmetry_equiv_pos_as_xyz
  1  'x, y, z'
loop_
 _atom_site_type_symbol
 _atom_site_label
 _atom_site_symmetry_multiplicity
 _atom_site_fract_x
 _atom_site_fract_y
 _atom_site_fract_z
 _atom_site_occupancy
  Li  Li1  1  0.134445  0.035449  0.062247  1
  Li  Li2  1  0.129358  0.338879  0.111768  1
  Li  Li3  1  0.126215  0.674315  0.115836  1
  Li  Li4  1  0.873799  0.992354  0.884147  1
  Li  Li5  1  0.870655  0.327778  0.888245  1
  Li  Li6  1  0.865574  0.631226  0.937741  1
  Li  Li7  1  0.000013  0.833328  0.499991  1
  Mn  Mn8  1  0.493324  0.160306  0.012581  1
  Mn  Mn9  1  0.504991  0.996850  0.494366  1
  Mn  Mn10  1  -0.000088  0.333369  0.499977  1
  Mn  Mn11  1  0.509073  0.170340  0.482349  1
  Mn  Mn12  1  0.506697  0.506363  0.987399  1
  Mn  Mn13  1  0.013212  0.997095  0.494584  1
  Mn  Mn14  1  0.500080  0.333334  0.500022  1
  Mn  Mn15  1  0.986764  0.669566  0.505418  1
  Mn  Mn16  1  0.490966  0.496284  0.517666  1
  Mn  Mn17  1  0.499981  0.833332  0.000029  1
  Mn  Mn18  1  0.495018  0.669802  0.505655  1
  O  O19  1  0.230099  0.019745  0.242070  1
  O  O20  1  0.263572  0.148598  0.261598  1
  O  O21  1  0.723379  0.016466  0.245529  1
  O  O22  1  0.273925  0.336991  0.248090  1
  O  O23  1  0.730920  0.148895  0.291267  1
  O  O24  1  0.275955  0.187102  0.688160  1
  O  O25  1  0.291220  0.493698  0.233882  1
  O  O26  1  0.723984  0.330472  0.247664  1
  O  O27  1  0.276005  0.336204  0.752330  1
  O  O28  1  0.255928  0.665623  0.275156  1
  O  O29  1  0.724049  0.479607  0.311795  1
  O  O30  1  0.708798  0.172992  0.766075  1
  O  O31  1  0.269046  0.517768  0.708740  1
  O  O32  1  0.231765  0.815458  0.293751  1
  O  O33  1  0.726054  0.329682  0.751921  1
  O  O34  1  0.701434  0.664546  0.276421  1
  O  O35  1  0.276609  0.650203  0.754472  1
  O  O36  1  0.751316  0.806172  0.288717  1
  O  O37  1  0.248663  0.860489  0.711282  1
  O  O38  1  0.736428  0.518051  0.738410  1
  O  O39  1  0.769893  0.646931  0.757913  1
  O  O40  1  0.298559  0.002106  0.723624  1
  O  O41  1  0.768258  0.851196  0.706244  1
  O  O42  1  0.744064  0.001036  0.724865  1
