# generated using pymatgen
data_Li9Mn7O16
_symmetry_space_group_name_H-M   'P 1'
_cell_length_a   5.09404715
_cell_length_b   7.88336140
_cell_length_c   7.84006835
_cell_angle_alpha   94.23848388
_cell_angle_beta   106.32867359
_cell_angle_gamma   82.43102508
_symmetry_Int_Tables_number   1
_chemical_formula_structural   Li9Mn7O16
_chemical_formula_sum   'Li9 Mn7 O16'
_cell_volume   299.28617823
_cell_formula_units_Z   1
loop_
 _symmetry_equiv_pos_site_id
 _symmetry_equiv_pos_as_xyz
  1  'x, y, z'
loop_
 _atom_site_type_symbol
 _atom_site_label
 _atom_site_symmetry_multiplicity
 _atom_site_fract_x
 _atom_site_fract_y
 _atom_site_fract_z
 _atom_site_occupancy
  Li  Li1  1  0.503177  0.190466  0.064648  1
  Li  Li2  1  0.496823  0.309534  0.435352  1
  Li  Li3  1  0.479198  0.547398  0.173027  1
  Li  Li4  1  0.509472  0.693706  0.567739  1
  Li  Li5  1  0.520802  0.952602  0.326973  1
  Li  Li6  1  0.491333  0.082967  0.695879  1
  Li  Li7  1  0.508667  0.417033  0.804121  1
  Li  Li8  1  0.490528  0.806294  0.932261  1
  Li  Li9  1  -0.000000  0.250000  0.750000  1
  Mn  Mn10  1  0.988079  -0.000411  0.993506  1
  Mn  Mn11  1  0.011921  0.500411  0.506494  1
  Mn  Mn12  1  0.009956  0.131567  0.383993  1
  Mn  Mn13  1  0.990044  0.368433  0.116007  1
  Mn  Mn14  1  0.993784  0.618282  0.868995  1
  Mn  Mn15  1  -0.000000  0.750000  0.250000  1
  Mn  Mn16  1  0.006216  0.881718  0.631005  1
  O  O17  1  0.210881  0.012099  0.828433  1
  O  O18  1  0.233744  0.161334  0.221308  1
  O  O19  1  0.225333  0.416590  0.972567  1
  O  O20  1  0.234511  0.544848  0.347395  1
  O  O21  1  0.203871  0.769284  0.073650  1
  O  O22  1  0.237901  0.918665  0.481030  1
  O  O23  1  0.247090  0.297209  0.589751  1
  O  O24  1  0.230654  0.670311  0.728738  1
  O  O25  1  0.766256  0.338666  0.278692  1
  O  O26  1  0.789119  0.487901  0.671567  1
  O  O27  1  0.796129  0.730716  0.426350  1
  O  O28  1  0.769346  0.829689  0.771262  1
  O  O29  1  0.774667  0.083410  0.527433  1
  O  O30  1  0.752910  0.202791  0.910249  1
  O  O31  1  0.762099  0.581335  0.018970  1
  O  O32  1  0.765489  0.955152  0.152605  1
