# generated using pymatgen
data_Li9Mn7O16
_symmetry_space_group_name_H-M   'P 1'
_cell_length_a   5.04986954
_cell_length_b   6.06008165
_cell_length_c   9.79691280
_cell_angle_alpha   84.05038704
_cell_angle_beta   86.24725279
_cell_angle_gamma   86.97309753
_symmetry_Int_Tables_number   1
_chemical_formula_structural   Li9Mn7O16
_chemical_formula_sum   'Li9 Mn7 O16'
_cell_volume   297.23680567
_cell_formula_units_Z   1
loop_
 _symmetry_equiv_pos_site_id
 _symmetry_equiv_pos_as_xyz
  1  'x, y, z'
loop_
 _atom_site_type_symbol
 _atom_site_label
 _atom_site_symmetry_multiplicity
 _atom_site_fract_x
 _atom_site_fract_y
 _atom_site_fract_z
 _atom_site_occupancy
  Li  Li1  1  0.621836  0.942377  0.246640  1
  Li  Li2  1  0.378164  0.557623  0.753360  1
  Li  Li3  1  0.129061  0.183954  0.248000  1
  Li  Li4  1  0.129964  0.690817  0.246642  1
  Li  Li5  1  0.870939  0.316046  0.752000  1
  Li  Li6  1  0.621235  0.432478  0.244476  1
  Li  Li7  1  0.378765  0.067522  0.755524  1
  Li  Li8  1  0.870036  0.809183  0.753358  1
  Li  Li9  1  0.500000  0.250000  -0.000000  1
  Mn  Mn10  1  0.000683  0.008833  0.999348  1
  Mn  Mn11  1  0.999317  0.491167  0.000652  1
  Mn  Mn12  1  0.750041  0.625358  0.499637  1
  Mn  Mn13  1  0.249959  0.874642  0.500363  1
  Mn  Mn14  1  0.750163  0.124874  0.499981  1
  Mn  Mn15  1  0.500000  0.750000  -0.000000  1
  Mn  Mn16  1  0.249837  0.375126  0.500019  1
  O  O17  1  0.838372  0.221005  0.115583  1
  O  O18  1  0.552630  0.829612  0.616701  1
  O  O19  1  0.316125  0.500279  0.105187  1
  O  O20  1  0.307380  0.957421  0.113197  1
  O  O21  1  0.053625  0.579819  0.616772  1
  O  O22  1  0.807126  0.715501  0.111055  1
  O  O23  1  0.552863  0.328277  0.618535  1
  O  O24  1  0.052302  0.079372  0.616949  1
  O  O25  1  0.447370  0.670388  0.383299  1
  O  O26  1  0.161628  0.278995  0.884417  1
  O  O27  1  0.946375  0.920181  0.383228  1
  O  O28  1  0.947698  0.420628  0.383051  1
  O  O29  1  0.683875  0.999721  0.894813  1
  O  O30  1  0.447137  0.171723  0.381465  1
  O  O31  1  0.192874  0.784499  0.888945  1
  O  O32  1  0.692620  0.542579  0.886803  1
