# generated using pymatgen
data_Li4Bi2O5
_symmetry_space_group_name_H-M   'P 1'
_cell_length_a   13.91147265
_cell_length_b   5.37481417
_cell_length_c   8.84370020
_cell_angle_alpha   90.00000000
_cell_angle_beta   90.00000000
_cell_angle_gamma   90.00000000
_symmetry_Int_Tables_number   1
_chemical_formula_structural   Li4Bi2O5
_chemical_formula_sum   'Li16 Bi8 O20'
_cell_volume   661.25743987
_cell_formula_units_Z   4
loop_
 _symmetry_equiv_pos_site_id
 _symmetry_equiv_pos_as_xyz
  1  'x, y, z'
loop_
 _atom_site_type_symbol
 _atom_site_label
 _atom_site_symmetry_multiplicity
 _atom_site_fract_x
 _atom_site_fract_y
 _atom_site_fract_z
 _atom_site_occupancy
  Li  Li1  1  0.035142  0.440263  0.861346  1
  Li  Li2  1  0.035142  0.059737  0.638654  1
  Li  Li3  1  0.252310  0.250000  0.750000  1
  Li  Li4  1  0.250000  0.500000  0.036829  1
  Li  Li5  1  0.250000  0.000000  0.463171  1
  Li  Li6  1  0.247690  0.750000  0.750000  1
  Li  Li7  1  0.464858  0.940263  0.638654  1
  Li  Li8  1  0.464858  0.559737  0.861346  1
  Li  Li9  1  0.535142  0.440263  0.138654  1
  Li  Li10  1  0.535142  0.059737  0.361346  1
  Li  Li11  1  0.752310  0.250000  0.250000  1
  Li  Li12  1  0.750000  0.000000  0.536829  1
  Li  Li13  1  0.750000  0.500000  0.963171  1
  Li  Li14  1  0.747690  0.750000  0.250000  1
  Li  Li15  1  0.964858  0.940263  0.361346  1
  Li  Li16  1  0.964858  0.559737  0.138654  1
  Bi  Bi17  1  0.118175  0.530551  0.447113  1
  Bi  Bi18  1  0.118175  0.969449  0.052887  1
  Bi  Bi19  1  0.381825  0.030551  0.052887  1
  Bi  Bi20  1  0.381825  0.469449  0.447113  1
  Bi  Bi21  1  0.618175  0.530551  0.552887  1
  Bi  Bi22  1  0.618175  0.969449  0.947113  1
  Bi  Bi23  1  0.881825  0.030551  0.947113  1
  Bi  Bi24  1  0.881825  0.469449  0.552887  1
  O  O25  1  0.037595  0.058786  0.858620  1
  O  O26  1  0.037595  0.441214  0.641380  1
  O  O27  1  0.118226  0.926575  0.472834  1
  O  O28  1  0.118226  0.573425  0.027166  1
  O  O29  1  0.250000  0.000000  0.891391  1
  O  O30  1  0.250000  0.500000  0.608609  1
  O  O31  1  0.381774  0.073425  0.472834  1
  O  O32  1  0.381774  0.426575  0.027166  1
  O  O33  1  0.462405  0.558786  0.641380  1
  O  O34  1  0.462405  0.941214  0.858620  1
  O  O35  1  0.537595  0.058786  0.141380  1
  O  O36  1  0.537595  0.441214  0.358620  1
  O  O37  1  0.618226  0.573425  0.972834  1
  O  O38  1  0.618226  0.926575  0.527166  1
  O  O39  1  0.750000  0.000000  0.108609  1
  O  O40  1  0.750000  0.500000  0.391391  1
  O  O41  1  0.881774  0.073425  0.527166  1
  O  O42  1  0.881774  0.426575  0.972834  1
  O  O43  1  0.962405  0.558786  0.358620  1
  O  O44  1  0.962405  0.941214  0.141380  1
