# generated using pymatgen
data_Li9Mn7O16
_symmetry_space_group_name_H-M   'P 1'
_cell_length_a   5.85253145
_cell_length_b   7.82601916
_cell_length_c   7.82601929
_cell_angle_alpha   95.33702343
_cell_angle_beta   111.57104569
_cell_angle_gamma   111.57104324
_symmetry_Int_Tables_number   1
_chemical_formula_structural   Li9Mn7O16
_chemical_formula_sum   'Li9 Mn7 O16'
_cell_volume   299.01123082
_cell_formula_units_Z   1
loop_
 _symmetry_equiv_pos_site_id
 _symmetry_equiv_pos_as_xyz
  1  'x, y, z'
loop_
 _atom_site_type_symbol
 _atom_site_label
 _atom_site_symmetry_multiplicity
 _atom_site_fract_x
 _atom_site_fract_y
 _atom_site_fract_z
 _atom_site_occupancy
  Li  Li1  1  0.003573  0.129722  0.384113  1
  Li  Li2  1  0.996426  0.615887  0.870278  1
  Li  Li3  1  0.500000  0.250000  0.750000  1
  Li  Li4  1  0.500000  0.750000  0.250000  1
  Li  Li5  1  0.996426  0.370278  0.115887  1
  Li  Li6  1  0.003573  0.884113  0.629722  1
  Li  Li7  1  0.500000  0.498939  0.501061  1
  Li  Li8  1  0.500000  0.001061  0.998939  1
  Li  Li9  1  0.000000  0.250000  0.750000  1
  Mn  Mn10  1  0.000000  0.002490  0.997510  1
  Mn  Mn11  1  1.000000  0.497510  0.502490  1
  Mn  Mn12  1  0.508450  0.131915  0.383321  1
  Mn  Mn13  1  0.491550  0.616679  0.868085  1
  Mn  Mn14  1  0.000000  0.750000  0.250000  1
  Mn  Mn15  1  0.491550  0.368085  0.116679  1
  Mn  Mn16  1  0.508450  0.883321  0.631915  1
  O  O17  1  0.763502  0.865025  0.117408  1
  O  O18  1  0.751989  0.371375  0.607049  1
  O  O19  1  0.276169  0.007319  0.507319  1
  O  O20  1  0.279608  0.504877  0.004877  1
  O  O21  1  0.751989  0.107049  0.871375  1
  O  O22  1  0.763502  0.617408  0.365025  1
  O  O23  1  0.274708  0.253460  0.253993  1
  O  O24  1  0.274708  0.753993  0.753460  1
  O  O25  1  0.248011  0.392951  0.628625  1
  O  O26  1  0.236498  0.882592  0.134975  1
  O  O27  1  0.723831  0.492681  0.992681  1
  O  O28  1  0.720392  0.995123  0.495123  1
  O  O29  1  0.236498  0.634975  0.382592  1
  O  O30  1  0.248011  0.128625  0.892951  1
  O  O31  1  0.725292  0.746007  0.746540  1
  O  O32  1  0.725292  0.246540  0.246007  1
