# generated using pymatgen
data_Li9Mn7O16
_symmetry_space_group_name_H-M   'P 1'
_cell_length_a   5.04743293
_cell_length_b   6.05686909
_cell_length_c   10.19922025
_cell_angle_alpha   103.59750493
_cell_angle_beta   79.83443026
_cell_angle_gamma   86.97141876
_symmetry_Int_Tables_number   1
_chemical_formula_structural   Li9Mn7O16
_chemical_formula_sum   'Li9 Mn7 O16'
_cell_volume   296.85624880
_cell_formula_units_Z   1
loop_
 _symmetry_equiv_pos_site_id
 _symmetry_equiv_pos_as_xyz
  1  'x, y, z'
loop_
 _atom_site_type_symbol
 _atom_site_label
 _atom_site_symmetry_multiplicity
 _atom_site_fract_x
 _atom_site_fract_y
 _atom_site_fract_z
 _atom_site_occupancy
  Li  Li1  1  0.254787  0.119226  0.246659  1
  Li  Li2  1  0.253066  0.621894  0.752000  1
  Li  Li3  1  0.746893  0.370839  0.246703  1
  Li  Li4  1  0.743480  0.871266  0.755540  1
  Li  Li5  1  0.256520  0.628734  0.244460  1
  Li  Li6  1  0.253107  0.129161  0.753297  1
  Li  Li7  1  0.746934  0.878106  0.248000  1
  Li  Li8  1  0.745213  0.380774  0.753341  1
  Li  Li9  1  0.500000  0.750000  0.000000  1
  Mn  Mn10  1  0.999689  0.991166  0.999427  1
  Mn  Mn11  1  0.000311  0.508834  0.000573  1
  Mn  Mn12  1  -0.000171  0.500088  0.500194  1
  Mn  Mn13  1  0.500000  0.250000  0.000000  1
  Mn  Mn14  1  0.500000  0.750000  0.500000  1
  Mn  Mn15  1  0.000171  -0.000088  0.499806  1
  Mn  Mn16  1  0.500000  0.250000  0.500000  1
  O  O17  1  0.103673  0.807813  0.115547  1
  O  O18  1  0.138127  0.324059  0.616750  1
  O  O19  1  0.635991  0.070784  0.113213  1
  O  O20  1  0.637501  0.576038  0.619161  1
  O  O21  1  0.137269  0.312153  0.111178  1
  O  O22  1  0.139689  0.825438  0.616717  1
  O  O23  1  0.631193  0.525839  0.105139  1
  O  O24  1  0.638767  0.074579  0.616599  1
  O  O25  1  0.361233  0.425421  0.383401  1
  O  O26  1  0.368807  0.974161  0.894861  1
  O  O27  1  0.860311  0.674562  0.383283  1
  O  O28  1  0.862731  0.187847  0.888822  1
  O  O29  1  0.362499  0.923962  0.380839  1
  O  O30  1  0.364009  0.429216  0.886787  1
  O  O31  1  0.861873  0.175941  0.383250  1
  O  O32  1  0.896327  0.692187  0.884453  1
