# generated using pymatgen
data_Li9Mn7O16
_symmetry_space_group_name_H-M   'P 1'
_cell_length_a   5.10652959
_cell_length_b   8.12708256
_cell_length_c   7.68815192
_cell_angle_alpha   100.13856053
_cell_angle_beta   103.26077134
_cell_angle_gamma   99.55081416
_symmetry_Int_Tables_number   1
_chemical_formula_structural   Li9Mn7O16
_chemical_formula_sum   'Li9 Mn7 O16'
_cell_volume   298.53997538
_cell_formula_units_Z   1
loop_
 _symmetry_equiv_pos_site_id
 _symmetry_equiv_pos_as_xyz
  1  'x, y, z'
loop_
 _atom_site_type_symbol
 _atom_site_label
 _atom_site_symmetry_multiplicity
 _atom_site_fract_x
 _atom_site_fract_y
 _atom_site_fract_z
 _atom_site_occupancy
  Li  Li1  1  0.489350  0.116048  0.868243  1
  Li  Li2  1  0.500031  0.504191  0.999673  1
  Li  Li3  1  0.500000  0.375000  0.625000  1
  Li  Li4  1  0.495783  0.760348  0.740757  1
  Li  Li5  1  0.510650  0.633952  0.381757  1
  Li  Li6  1  0.504217  0.989652  0.509243  1
  Li  Li7  1  0.500000  0.875000  0.125000  1
  Li  Li8  1  0.499969  0.245809  0.250327  1
  Li  Li9  1  0.000000  0.875000  0.625000  1
  Mn  Mn10  1  0.990139  0.996443  0.995398  1
  Mn  Mn11  1  0.009861  0.753557  0.254602  1
  Mn  Mn12  1  0.000000  0.375000  0.125000  1
  Mn  Mn13  1  0.997449  0.119373  0.375448  1
  Mn  Mn14  1  0.002459  0.507006  0.502449  1
  Mn  Mn15  1  0.997541  0.242994  0.747551  1
  Mn  Mn16  1  0.002551  0.630627  0.874552  1
  O  O17  1  0.210302  0.854737  0.881701  1
  O  O18  1  0.234969  0.260652  0.993566  1
  O  O19  1  0.234581  0.136263  0.617930  1
  O  O20  1  0.229817  0.514103  0.745507  1
  O  O21  1  0.207562  0.356027  0.370440  1
  O  O22  1  0.245345  0.747441  0.483250  1
  O  O23  1  0.233628  0.631511  0.116966  1
  O  O24  1  0.230694  0.015227  0.245444  1
  O  O25  1  0.792438  0.393972  0.879559  1
  O  O26  1  0.769306  0.734773  0.004556  1
  O  O27  1  0.765419  0.613737  0.632070  1
  O  O28  1  0.754655  0.002559  0.766749  1
  O  O29  1  0.789698  0.895263  0.368300  1
  O  O30  1  0.770183  0.235897  0.504494  1
  O  O31  1  0.766372  0.118489  0.133035  1
  O  O32  1  0.765031  0.489348  0.256435  1
