# generated using pymatgen
data_Li9Mn7O16
_symmetry_space_group_name_H-M   'P 1'
_cell_length_a   3.00672074
_cell_length_b   10.18606287
_cell_length_c   9.94353690
_cell_angle_alpha   77.82709079
_cell_angle_beta   93.86885120
_cell_angle_gamma   93.50714187
_symmetry_Int_Tables_number   1
_chemical_formula_structural   Li9Mn7O16
_chemical_formula_sum   'Li9 Mn7 O16'
_cell_volume   296.66719933
_cell_formula_units_Z   1
loop_
 _symmetry_equiv_pos_site_id
 _symmetry_equiv_pos_as_xyz
  1  'x, y, z'
loop_
 _atom_site_type_symbol
 _atom_site_label
 _atom_site_symmetry_multiplicity
 _atom_site_fract_x
 _atom_site_fract_y
 _atom_site_fract_z
 _atom_site_occupancy
  Li  Li1  1  0.993536  0.125004  0.254861  1
  Li  Li2  1  0.496680  0.125432  0.752246  1
  Li  Li3  1  0.503320  0.374568  0.247754  1
  Li  Li4  1  0.006464  0.374996  0.745139  1
  Li  Li5  1  0.989315  0.637741  0.241696  1
  Li  Li6  1  0.487853  0.630241  0.758275  1
  Li  Li7  1  0.512147  0.869759  0.241725  1
  Li  Li8  1  0.010685  0.862259  0.758304  1
  Li  Li9  1  0.500000  0.750000  -0.000000  1
  Mn  Mn10  1  0.003309  0.990939  0.001634  1
  Mn  Mn11  1  0.996691  0.509061  0.998366  1
  Mn  Mn12  1  0.500808  0.999586  0.501861  1
  Mn  Mn13  1  0.500000  0.250000  -0.000000  1
  Mn  Mn14  1  0.000000  0.250000  0.500000  1
  Mn  Mn15  1  0.499192  0.500414  0.498139  1
  Mn  Mn16  1  0.000000  0.750000  0.500000  1
  O  O17  1  0.532565  0.059970  0.105770  1
  O  O18  1  0.964047  0.070229  0.618102  1
  O  O19  1  0.970950  0.316170  0.113629  1
  O  O20  1  0.467030  0.319604  0.618555  1
  O  O21  1  0.526695  0.552679  0.107522  1
  O  O22  1  0.965548  0.568241  0.615004  1
  O  O23  1  0.993312  0.827345  0.118159  1
  O  O24  1  0.465799  0.818770  0.619334  1
  O  O25  1  0.532970  0.180396  0.381445  1
  O  O26  1  0.029050  0.183830  0.886371  1
  O  O27  1  0.035953  0.429771  0.381898  1
  O  O28  1  0.467435  0.440030  0.894230  1
  O  O29  1  0.534201  0.681230  0.380666  1
  O  O30  1  0.006688  0.672655  0.881841  1
  O  O31  1  0.034452  0.931759  0.384996  1
  O  O32  1  0.473305  0.947321  0.892478  1
