# generated using pymatgen
data_Li9Mn7O16
_symmetry_space_group_name_H-M   'P 1'
_cell_length_a   5.29085834
_cell_length_b   7.66642805
_cell_length_c   7.77196056
_cell_angle_alpha   95.00269075
_cell_angle_beta   105.71489885
_cell_angle_gamma   98.38993046
_symmetry_Int_Tables_number   1
_chemical_formula_structural   Li9Mn7O16
_chemical_formula_sum   'Li9 Mn7 O16'
_cell_volume   297.54521756
_cell_formula_units_Z   1
loop_
 _symmetry_equiv_pos_site_id
 _symmetry_equiv_pos_as_xyz
  1  'x, y, z'
loop_
 _atom_site_type_symbol
 _atom_site_label
 _atom_site_symmetry_multiplicity
 _atom_site_fract_x
 _atom_site_fract_y
 _atom_site_fract_z
 _atom_site_occupancy
  Li  Li1  1  0.548578  0.185629  0.056169  1
  Li  Li2  1  0.937254  0.312314  0.438795  1
  Li  Li3  1  0.312746  0.437686  0.811205  1
  Li  Li4  1  0.701422  0.564371  0.193831  1
  Li  Li5  1  0.043728  0.695178  0.557633  1
  Li  Li6  1  0.439276  0.816806  0.924465  1
  Li  Li7  1  0.810724  0.933194  0.325535  1
  Li  Li8  1  0.206272  0.054822  0.692367  1
  Li  Li9  1  0.625000  0.875000  0.625000  1
  Mn  Mn10  1  0.990656  0.997605  0.993326  1
  Mn  Mn11  1  0.506669  0.503661  0.500071  1
  Mn  Mn12  1  0.381312  0.124713  0.379713  1
  Mn  Mn13  1  0.743331  0.246339  0.749929  1
  Mn  Mn14  1  0.125000  0.375000  0.125000  1
  Mn  Mn15  1  0.868688  0.625287  0.870287  1
  Mn  Mn16  1  0.259344  0.752395  0.256674  1
  O  O17  1  0.153232  0.215439  0.921913  1
  O  O18  1  0.528056  0.337283  0.293744  1
  O  O19  1  0.911885  0.467747  0.677298  1
  O  O20  1  0.234394  0.595658  0.028608  1
  O  O21  1  0.647520  0.704881  0.406725  1
  O  O22  1  0.034720  0.837289  0.797027  1
  O  O23  1  0.410991  0.967656  0.179284  1
  O  O24  1  0.732905  0.105758  0.524488  1
  O  O25  1  0.015606  0.154341  0.221392  1
  O  O26  1  0.338114  0.282253  0.572702  1
  O  O27  1  0.721944  0.412716  0.956255  1
  O  O28  1  0.096768  0.534561  0.328086  1
  O  O29  1  0.517095  0.644241  0.725511  1
  O  O30  1  0.839009  0.782343  0.070715  1
  O  O31  1  0.215280  0.912710  0.452972  1
  O  O32  1  0.602479  0.045118  0.843274  1
