# generated using pymatgen
data_Li9Mn7O16
_symmetry_space_group_name_H-M   'P 1'
_cell_length_a   5.99460076
_cell_length_b   7.77069049
_cell_length_c   7.67358918
_cell_angle_alpha   115.78250527
_cell_angle_beta   109.02828238
_cell_angle_gamma   70.81055797
_symmetry_Int_Tables_number   1
_chemical_formula_structural   Li9Mn7O16
_chemical_formula_sum   'Li9 Mn7 O16'
_cell_volume   296.85783420
_cell_formula_units_Z   1
loop_
 _symmetry_equiv_pos_site_id
 _symmetry_equiv_pos_as_xyz
  1  'x, y, z'
loop_
 _atom_site_type_symbol
 _atom_site_label
 _atom_site_symmetry_multiplicity
 _atom_site_fract_x
 _atom_site_fract_y
 _atom_site_fract_z
 _atom_site_occupancy
  Li  Li1  1  0.375000  0.125000  0.375000  1
  Li  Li2  1  0.241793  0.247738  0.742784  1
  Li  Li3  1  0.622848  0.876283  0.624839  1
  Li  Li4  1  0.508207  0.002262  0.007216  1
  Li  Li5  1  0.875000  0.625000  0.875000  1
  Li  Li6  1  0.753191  0.761480  0.250071  1
  Li  Li7  1  0.127152  0.373717  0.125161  1
  Li  Li8  1  0.996809  0.488520  0.499929  1
  Li  Li9  1  0.875000  0.125000  0.375000  1
  Mn  Mn10  1  0.994311  0.999461  0.000975  1
  Mn  Mn11  1  0.506512  0.493265  0.497449  1
  Mn  Mn12  1  0.755689  0.250539  0.749025  1
  Mn  Mn13  1  0.632234  0.371007  0.127180  1
  Mn  Mn14  1  0.375000  0.625000  0.875000  1
  Mn  Mn15  1  0.243488  0.756735  0.252551  1
  Mn  Mn16  1  0.117766  0.878993  0.622820  1
  O  O17  1  0.960754  0.251542  0.224075  1
  O  O18  1  0.866601  0.375138  0.638976  1
  O  O19  1  0.253093  0.982497  0.499691  1
  O  O20  1  0.130481  0.101310  0.869472  1
  O  O21  1  0.459483  0.746846  0.733162  1
  O  O22  1  0.380205  0.857903  0.124678  1
  O  O23  1  0.748126  0.484012  0.999539  1
  O  O24  1  0.627854  0.600347  0.369279  1
  O  O25  1  0.789246  0.998458  0.525925  1
  O  O26  1  0.619519  0.148689  0.880527  1
  O  O27  1  0.001874  0.765987  0.750460  1
  O  O28  1  0.883399  0.874862  0.111024  1
  O  O29  1  0.290517  0.503154  0.016838  1
  O  O30  1  0.122146  0.649652  0.380720  1
  O  O31  1  0.496908  0.267502  0.250308  1
  O  O32  1  0.369795  0.392096  0.625321  1
