# generated using pymatgen
data_Li9Mn7O16
_symmetry_space_group_name_H-M   'P 1'
_cell_length_a   5.10215603
_cell_length_b   6.06805399
_cell_length_c   9.85681476
_cell_angle_alpha   85.67393940
_cell_angle_beta   78.09797152
_cell_angle_gamma   88.17936430
_symmetry_Int_Tables_number   1
_chemical_formula_structural   Li9Mn7O16
_chemical_formula_sum   'Li9 Mn7 O16'
_cell_volume   297.71606607
_cell_formula_units_Z   1
loop_
 _symmetry_equiv_pos_site_id
 _symmetry_equiv_pos_as_xyz
  1  'x, y, z'
loop_
 _atom_site_type_symbol
 _atom_site_label
 _atom_site_symmetry_multiplicity
 _atom_site_fract_x
 _atom_site_fract_y
 _atom_site_fract_z
 _atom_site_occupancy
  Li  Li1  1  0.491589  0.260881  0.999132  1
  Li  Li2  1  0.253053  0.502085  0.248024  1
  Li  Li3  1  0.508411  0.739119  0.000868  1
  Li  Li4  1  0.244426  0.999069  0.248118  1
  Li  Li5  1  0.755574  0.000931  0.751882  1
  Li  Li6  1  0.746947  0.497915  0.751976  1
  Li  Li7  1  0.996122  0.748496  0.498944  1
  Li  Li8  1  0.003878  0.251504  0.501056  1
  Li  Li9  1  -0.000000  0.500000  0.000000  1
  Mn  Mn10  1  -0.000000  0.000000  0.000000  1
  Mn  Mn11  1  0.750398  0.248751  0.244904  1
  Mn  Mn12  1  0.500000  0.500000  0.500000  1
  Mn  Mn13  1  0.249602  0.751249  0.755096  1
  Mn  Mn14  1  0.750752  0.741866  0.244465  1
  Mn  Mn15  1  0.500000  0.000000  0.500000  1
  Mn  Mn16  1  0.249248  0.258134  0.755535  1
  O  O17  1  0.352947  0.018696  0.880341  1
  O  O18  1  0.093016  0.221707  0.117630  1
  O  O19  1  0.367190  0.503766  0.863181  1
  O  O20  1  0.100884  0.764204  0.126123  1
  O  O21  1  0.606077  0.766606  0.626968  1
  O  O22  1  0.602188  0.264813  0.626539  1
  O  O23  1  0.859474  0.513208  0.375356  1
  O  O24  1  0.849780  0.002397  0.371765  1
  O  O25  1  0.632810  0.496234  0.136819  1
  O  O26  1  0.397812  0.735187  0.373461  1
  O  O27  1  0.647053  0.981304  0.119659  1
  O  O28  1  0.393923  0.233394  0.373032  1
  O  O29  1  0.899116  0.235796  0.873877  1
  O  O30  1  0.906984  0.778293  0.882370  1
  O  O31  1  0.150220  0.997603  0.628235  1
  O  O32  1  0.140526  0.486792  0.624644  1
