# generated using pymatgen
data_Li9Mn7O16
_symmetry_space_group_name_H-M   'P 1'
_cell_length_a   2.87818550
_cell_length_b   13.56370371
_cell_length_c   7.80884177
_cell_angle_alpha   84.90210697
_cell_angle_beta   79.38026338
_cell_angle_gamma   89.99999896
_symmetry_Int_Tables_number   1
_chemical_formula_structural   Li9Mn7O16
_chemical_formula_sum   'Li9 Mn7 O16'
_cell_volume   298.39980250
_cell_formula_units_Z   1
loop_
 _symmetry_equiv_pos_site_id
 _symmetry_equiv_pos_as_xyz
  1  'x, y, z'
loop_
 _atom_site_type_symbol
 _atom_site_label
 _atom_site_symmetry_multiplicity
 _atom_site_fract_x
 _atom_site_fract_y
 _atom_site_fract_z
 _atom_site_occupancy
  Li  Li1  1  0.563245  0.181549  0.873510  1
  Li  Li2  1  0.686755  0.568451  0.626490  1
  Li  Li3  1  0.806978  0.930330  0.386044  1
  Li  Li4  1  0.937032  0.314075  0.125937  1
  Li  Li5  1  0.063782  0.695539  0.872436  1
  Li  Li6  1  0.186218  0.054461  0.627564  1
  Li  Li7  1  0.312968  0.435925  0.374063  1
  Li  Li8  1  0.443022  0.819670  0.113956  1
  Li  Li9  1  0.625000  0.875000  0.750000  1
  Mn  Mn10  1  0.005330  0.989780  0.989340  1
  Mn  Mn11  1  0.244670  0.760220  0.510660  1
  Mn  Mn12  1  0.125000  0.375000  0.750000  1
  Mn  Mn13  1  0.376838  0.116453  0.246323  1
  Mn  Mn14  1  0.498801  0.502903  0.002398  1
  Mn  Mn15  1  0.751199  0.247097  0.497602  1
  Mn  Mn16  1  0.873162  0.633547  0.253677  1
  O  O17  1  0.586155  0.028752  0.827689  1
  O  O18  1  0.709827  0.408692  0.580347  1
  O  O19  1  0.830565  0.781144  0.338869  1
  O  O20  1  0.964145  0.141317  0.071710  1
  O  O21  1  0.083325  0.533101  0.833351  1
  O  O22  1  0.222327  0.889183  0.555347  1
  O  O23  1  0.336376  0.279811  0.327247  1
  O  O24  1  0.458716  0.660595  0.082568  1
  O  O25  1  0.540173  0.341308  0.919653  1
  O  O26  1  0.663845  0.721248  0.672311  1
  O  O27  1  0.791284  0.089405  0.417432  1
  O  O28  1  0.913624  0.470189  0.172753  1
  O  O29  1  0.027673  0.860817  0.944653  1
  O  O30  1  0.166675  0.216899  0.666649  1
  O  O31  1  0.285855  0.608683  0.428290  1
  O  O32  1  0.419435  0.968856  0.161131  1
