# generated using pymatgen
data_Li9Mn7O16
_symmetry_space_group_name_H-M   'P 1'
_cell_length_a   5.08577920
_cell_length_b   8.00235421
_cell_length_c   7.77881915
_cell_angle_alpha   80.53709987
_cell_angle_beta   104.10989803
_cell_angle_gamma   81.45260237
_symmetry_Int_Tables_number   1
_chemical_formula_structural   Li9Mn7O16
_chemical_formula_sum   'Li9 Mn7 O16'
_cell_volume   296.90373892
_cell_formula_units_Z   1
loop_
 _symmetry_equiv_pos_site_id
 _symmetry_equiv_pos_as_xyz
  1  'x, y, z'
loop_
 _atom_site_type_symbol
 _atom_site_label
 _atom_site_symmetry_multiplicity
 _atom_site_fract_x
 _atom_site_fract_y
 _atom_site_fract_z
 _atom_site_occupancy
  Li  Li1  1  0.496478  0.246131  0.758965  1
  Li  Li2  1  0.978524  0.886569  0.370877  1
  Li  Li3  1  0.504307  0.487336  0.000214  1
  Li  Li4  1  0.021420  0.363406  0.879157  1
  Li  Li5  1  0.503357  0.003908  0.491123  1
  Li  Li6  1  0.999986  0.624984  0.124949  1
  Li  Li7  1  0.999855  0.125070  0.625009  1
  Li  Li8  1  0.495910  0.762625  0.249823  1
  Li  Li9  1  0.499912  0.125094  0.125057  1
  Mn  Mn10  1  0.993798  0.009744  0.000598  1
  Mn  Mn11  1  0.006582  0.240173  0.249326  1
  Mn  Mn12  1  0.499977  0.624949  0.625045  1
  Mn  Mn13  1  0.491077  0.886433  0.879084  1
  Mn  Mn14  1  0.006724  0.496003  0.498548  1
  Mn  Mn15  1  0.993355  0.753938  0.751403  1
  Mn  Mn16  1  0.508668  0.363851  0.370727  1
  O  O17  1  0.743467  0.003558  0.769073  1
  O  O18  1  0.249592  0.621416  0.391408  1
  O  O19  1  0.786497  0.230168  0.011445  1
  O  O20  1  0.226612  0.120157  0.884870  1
  O  O21  1  0.742999  0.750003  0.511249  1
  O  O22  1  0.250008  0.372613  0.141865  1
  O  O23  1  0.244079  0.870195  0.647166  1
  O  O24  1  0.777929  0.470072  0.255836  1
  O  O25  1  0.257045  0.499954  0.738723  1
  O  O26  1  0.773148  0.129960  0.365199  1
  O  O27  1  0.222105  0.779992  0.994160  1
  O  O28  1  0.750678  0.628380  0.858566  1
  O  O29  1  0.256504  0.246406  0.481019  1
  O  O30  1  0.750125  0.877370  0.108200  1
  O  O31  1  0.755892  0.379746  0.602745  1
  O  O32  1  0.213393  0.019796  0.238567  1
