# generated using pymatgen
data_Li9Mn7O16
_symmetry_space_group_name_H-M   'P 1'
_cell_length_a   2.87992923
_cell_length_b   10.55112122
_cell_length_c   10.71501941
_cell_angle_alpha   111.45613555
_cell_angle_beta   90.00000006
_cell_angle_gamma   82.15607423
_symmetry_Int_Tables_number   1
_chemical_formula_structural   Li9Mn7O16
_chemical_formula_sum   'Li9 Mn7 O16'
_cell_volume   299.75191878
_cell_formula_units_Z   1
loop_
 _symmetry_equiv_pos_site_id
 _symmetry_equiv_pos_as_xyz
  1  'x, y, z'
loop_
 _atom_site_type_symbol
 _atom_site_label
 _atom_site_symmetry_multiplicity
 _atom_site_fract_x
 _atom_site_fract_y
 _atom_site_fract_z
 _atom_site_occupancy
  Li  Li1  1  0.376556  0.246888  0.182338  1
  Li  Li2  1  0.122111  0.755778  0.568663  1
  Li  Li3  1  0.877889  0.244222  0.931337  1
  Li  Li4  1  0.872924  0.254152  0.443851  1
  Li  Li5  1  0.620877  0.758246  0.813332  1
  Li  Li6  1  0.379123  0.241754  0.686668  1
  Li  Li7  1  0.127076  0.745848  0.056149  1
  Li  Li8  1  0.623444  0.753112  0.317662  1
  Li  Li9  1  0.500000  0.000000  0.750000  1
  Mn  Mn10  1  0.003382  0.993235  0.985472  1
  Mn  Mn11  1  0.996618  0.006765  0.514528  1
  Mn  Mn12  1  0.750038  0.499924  0.375047  1
  Mn  Mn13  1  0.249962  0.500076  0.124953  1
  Mn  Mn14  1  0.751906  0.496187  0.873176  1
  Mn  Mn15  1  0.500000  0.000000  0.250000  1
  Mn  Mn16  1  0.248094  0.503813  0.626824  1
  O  O17  1  0.443774  0.112453  0.973310  1
  O  O18  1  0.191684  0.616633  0.352056  1
  O  O19  1  0.944277  0.111446  0.693219  1
  O  O20  1  0.946959  0.106082  0.207716  1
  O  O21  1  0.689878  0.620243  0.602118  1
  O  O22  1  0.443295  0.113410  0.473256  1
  O  O23  1  0.193059  0.613882  0.852729  1
  O  O24  1  0.690778  0.618444  0.102826  1
  O  O25  1  0.309222  0.381556  0.397174  1
  O  O26  1  0.055723  0.888554  0.806781  1
  O  O27  1  0.808316  0.383367  0.147944  1
  O  O28  1  0.806941  0.386118  0.647271  1
  O  O29  1  0.556705  0.886590  0.026744  1
  O  O30  1  0.310122  0.379757  0.897882  1
  O  O31  1  0.053041  0.893918  0.292284  1
  O  O32  1  0.556226  0.887547  0.526690  1
