# generated using pymatgen
data_Li9Mn7O16
_symmetry_space_group_name_H-M   'P 1'
_cell_length_a   3.03328789
_cell_length_b   5.11026458
_cell_length_c   19.59325111
_cell_angle_alpha   93.14247972
_cell_angle_beta   84.34701696
_cell_angle_gamma   93.86964995
_symmetry_Int_Tables_number   1
_chemical_formula_structural   Li9Mn7O16
_chemical_formula_sum   'Li9 Mn7 O16'
_cell_volume   301.19189181
_cell_formula_units_Z   1
loop_
 _symmetry_equiv_pos_site_id
 _symmetry_equiv_pos_as_xyz
  1  'x, y, z'
loop_
 _atom_site_type_symbol
 _atom_site_label
 _atom_site_symmetry_multiplicity
 _atom_site_fract_x
 _atom_site_fract_y
 _atom_site_fract_z
 _atom_site_occupancy
  Li  Li1  1  0.876753  0.364883  0.132792  1
  Li  Li2  1  0.137027  0.618896  0.368891  1
  Li  Li3  1  0.375416  0.874468  0.624585  1
  Li  Li4  1  0.625191  0.124581  0.875294  1
  Li  Li5  1  0.362973  0.881104  0.131109  1
  Li  Li6  1  0.623247  0.135117  0.367208  1
  Li  Li7  1  0.874809  0.375419  0.624706  1
  Li  Li8  1  0.124584  0.625532  0.875415  1
  Li  Li9  1  0.250000  0.250000  0.250000  1
  Mn  Mn10  1  0.995875  0.000236  0.000884  1
  Mn  Mn11  1  0.750000  0.750000  0.250000  1
  Mn  Mn12  1  0.504125  0.499764  0.499116  1
  Mn  Mn13  1  0.750000  0.750000  0.750000  1
  Mn  Mn14  1  0.496546  0.501761  0.000706  1
  Mn  Mn15  1  0.003454  0.998239  0.499294  1
  Mn  Mn16  1  0.250000  0.250000  0.750000  1
  O  O17  1  0.415126  0.195277  0.057647  1
  O  O18  1  0.682748  0.461778  0.308767  1
  O  O19  1  0.913417  0.694749  0.558082  1
  O  O20  1  0.161840  0.945764  0.808235  1
  O  O21  1  0.920888  0.690957  0.056120  1
  O  O22  1  0.228042  0.911248  0.303654  1
  O  O23  1  0.417722  0.194593  0.557813  1
  O  O24  1  0.661507  0.445743  0.808263  1
  O  O25  1  0.271958  0.588752  0.196346  1
  O  O26  1  0.579112  0.809043  0.443880  1
  O  O27  1  0.838493  0.054257  0.691737  1
  O  O28  1  0.082278  0.305407  0.942187  1
  O  O29  1  0.817252  0.038222  0.191233  1
  O  O30  1  0.084874  0.304723  0.442353  1
  O  O31  1  0.338160  0.554236  0.691765  1
  O  O32  1  0.586583  0.805251  0.941918  1
