# generated using pymatgen
data_Li21Mo11O32
_symmetry_space_group_name_H-M   'P 1'
_cell_length_a   5.25932132
_cell_length_b   21.00207577
_cell_length_c   21.00207620
_cell_angle_alpha   33.82722191
_cell_angle_beta   34.07921588
_cell_angle_gamma   34.07921458
_symmetry_Int_Tables_number   1
_chemical_formula_structural   Li21Mo11O32
_chemical_formula_sum   'Li21 Mo11 O32'
_cell_volume   646.41462181
_cell_formula_units_Z   1
loop_
 _symmetry_equiv_pos_site_id
 _symmetry_equiv_pos_as_xyz
  1  'x, y, z'
loop_
 _atom_site_type_symbol
 _atom_site_label
 _atom_site_symmetry_multiplicity
 _atom_site_fract_x
 _atom_site_fract_y
 _atom_site_fract_z
 _atom_site_occupancy
  Li  Li1  1  0.013949  0.996845  0.996845  1
  Li  Li2  1  0.000000  0.267848  0.982152  1
  Li  Li3  1  0.969669  0.259330  0.497603  1
  Li  Li4  1  0.030331  0.752397  0.990670  1
  Li  Li5  1  0.986051  0.253155  0.253155  1
  Li  Li6  1  0.028070  0.502765  0.988810  1
  Li  Li7  1  0.482768  0.377927  0.377927  1
  Li  Li8  1  0.969669  0.497603  0.259330  1
  Li  Li9  1  0.030331  0.990670  0.752397  1
  Li  Li10  1  0.971930  0.747235  0.261190  1
  Li  Li11  1  0.958063  0.506194  0.506194  1
  Li  Li12  1  0.971930  0.261190  0.747235  1
  Li  Li13  1  0.500000  0.625000  0.625000  1
  Li  Li14  1  0.500000  0.862201  0.387799  1
  Li  Li15  1  0.500000  0.387799  0.862201  1
  Li  Li16  1  1.000000  0.511453  0.738547  1
  Li  Li17  1  0.000000  0.738547  0.511453  1
  Li  Li18  1  1.000000  0.982152  0.267848  1
  Li  Li19  1  0.041937  0.743806  0.743806  1
  Li  Li20  1  0.028070  0.988810  0.502765  1
  Li  Li21  1  0.517232  0.872073  0.872073  1
  Mo  Mo22  1  0.500000  0.125000  0.125000  1
  Mo  Mo23  1  0.504261  0.122150  0.378183  1
  Mo  Mo24  1  0.504261  0.378183  0.122150  1
  Mo  Mo25  1  0.500000  0.625000  0.125000  1
  Mo  Mo26  1  0.500000  0.125000  0.625000  1
  Mo  Mo27  1  0.472638  0.629132  0.376284  1
  Mo  Mo28  1  0.472638  0.376284  0.629132  1
  Mo  Mo29  1  0.495739  0.871817  0.127850  1
  Mo  Mo30  1  0.495739  0.127850  0.871817  1
  Mo  Mo31  1  0.527362  0.620868  0.873716  1
  Mo  Mo32  1  0.527362  0.873716  0.620868  1
  O  O33  1  0.249895  0.060805  0.060805  1
  O  O34  1  0.236749  0.067291  0.305702  1
  O  O35  1  0.236749  0.305702  0.067291  1
  O  O36  1  0.750105  0.189195  0.189195  1
  O  O37  1  0.236741  0.563490  0.066001  1
  O  O38  1  0.236741  0.066001  0.563490  1
  O  O39  1  0.287661  0.305627  0.305627  1
  O  O40  1  0.778634  0.442865  0.181834  1
  O  O41  1  0.778634  0.181834  0.442865  1
  O  O42  1  0.233070  0.567685  0.306020  1
  O  O43  1  0.221366  0.068166  0.807135  1
  O  O44  1  0.221366  0.807135  0.068166  1
  O  O45  1  0.233070  0.306020  0.567685  1
  O  O46  1  0.763259  0.686510  0.183999  1
  O  O47  1  0.763259  0.183999  0.686510  1
  O  O48  1  0.737954  0.442414  0.442414  1
  O  O49  1  0.272772  0.808400  0.308688  1
  O  O50  1  0.264040  0.559512  0.559512  1
  O  O51  1  0.272772  0.308688  0.808400  1
  O  O52  1  0.804789  0.684263  0.430712  1
  O  O53  1  0.763251  0.944298  0.182709  1
  O  O54  1  0.763251  0.182709  0.944298  1
  O  O55  1  0.804789  0.430712  0.684263  1
  O  O56  1  0.195211  0.565737  0.819288  1
  O  O57  1  0.195211  0.819288  0.565737  1
  O  O58  1  0.735960  0.690488  0.690488  1
  O  O59  1  0.727228  0.441600  0.941312  1
  O  O60  1  0.727228  0.941312  0.441600  1
  O  O61  1  0.262046  0.807586  0.807586  1
  O  O62  1  0.766930  0.682315  0.943980  1
  O  O63  1  0.766930  0.943980  0.682315  1
  O  O64  1  0.712339  0.944373  0.944373  1
