# generated using pymatgen
data_Li4Mo3O8
_symmetry_space_group_name_H-M   'P 1'
_cell_length_a   11.34249478
_cell_length_b   11.34249443
_cell_length_c   11.34249425
_cell_angle_alpha   29.78663588
_cell_angle_beta   29.78663875
_cell_angle_gamma   29.78663872
_symmetry_Int_Tables_number   1
_chemical_formula_structural   Li4Mo3O8
_chemical_formula_sum   'Li8 Mo6 O16'
_cell_volume   318.88135589
_cell_formula_units_Z   2
loop_
 _symmetry_equiv_pos_site_id
 _symmetry_equiv_pos_as_xyz
  1  'x, y, z'
loop_
 _atom_site_type_symbol
 _atom_site_label
 _atom_site_symmetry_multiplicity
 _atom_site_fract_x
 _atom_site_fract_y
 _atom_site_fract_z
 _atom_site_occupancy
  Li  Li1  1  0.245598  0.245598  0.245598  1
  Li  Li2  1  0.174203  0.174203  0.174203  1
  Li  Li3  1  0.825797  0.825797  0.825797  1
  Li  Li4  1  0.684985  0.684985  0.684985  1
  Li  Li5  1  0.754402  0.754402  0.754402  1
  Li  Li6  1  0.000000  0.000000  0.000000  1
  Li  Li7  1  0.500000  0.500000  0.500000  1
  Li  Li8  1  0.315015  0.315015  0.315015  1
  Mo  Mo9  1  0.267886  0.714484  0.267886  1
  Mo  Mo10  1  0.732114  0.732114  0.285516  1
  Mo  Mo11  1  0.714484  0.267886  0.267886  1
  Mo  Mo12  1  0.732114  0.285516  0.732114  1
  Mo  Mo13  1  0.285516  0.732114  0.732114  1
  Mo  Mo14  1  0.267886  0.267886  0.714484  1
  O  O15  1  0.112656  0.621970  0.112656  1
  O  O16  1  0.619710  0.619710  0.128571  1
  O  O17  1  0.378030  0.887344  0.887344  1
  O  O18  1  0.112656  0.112656  0.621970  1
  O  O19  1  0.884217  0.884217  0.884217  1
  O  O20  1  0.380290  0.380290  0.871429  1
  O  O21  1  0.619710  0.128571  0.619710  1
  O  O22  1  0.871429  0.380290  0.380290  1
  O  O23  1  0.628131  0.628131  0.628131  1
  O  O24  1  0.115783  0.115783  0.115783  1
  O  O25  1  0.887344  0.887344  0.378030  1
  O  O26  1  0.380290  0.871429  0.380290  1
  O  O27  1  0.887344  0.378030  0.887344  1
  O  O28  1  0.621970  0.112656  0.112656  1
  O  O29  1  0.371869  0.371869  0.371869  1
  O  O30  1  0.128571  0.619710  0.619710  1
