# generated using pymatgen
data_Li4Mo3O8
_symmetry_space_group_name_H-M   'P 1'
_cell_length_a   10.43810612
_cell_length_b   10.43810598
_cell_length_c   14.70240164
_cell_angle_alpha   20.11220303
_cell_angle_beta   20.11220510
_cell_angle_gamma   34.64997574
_symmetry_Int_Tables_number   1
_chemical_formula_structural   Li4Mo3O8
_chemical_formula_sum   'Li4 Mo3 O8'
_cell_volume   164.03063118
_cell_formula_units_Z   1
loop_
 _symmetry_equiv_pos_site_id
 _symmetry_equiv_pos_as_xyz
  1  'x, y, z'
loop_
 _atom_site_type_symbol
 _atom_site_label
 _atom_site_symmetry_multiplicity
 _atom_site_fract_x
 _atom_site_fract_y
 _atom_site_fract_z
 _atom_site_occupancy
  Li  Li1  1  0.000000  0.000000  0.000000  1
  Li  Li2  1  0.000000  0.500000  0.000000  1
  Li  Li3  1  0.500000  0.000000  0.000000  1
  Li  Li4  1  0.500000  0.500000  0.000000  1
  Mo  Mo5  1  0.000000  0.500000  0.500000  1
  Mo  Mo6  1  0.500000  0.000000  0.500000  1
  Mo  Mo7  1  0.500000  0.500000  0.500000  1
  O  O8  1  1.000000  0.545356  0.212864  1
  O  O9  1  0.000000  0.000000  0.249564  1
  O  O10  1  0.454644  0.454644  0.303575  1
  O  O11  1  0.454644  0.000000  0.787136  1
  O  O12  1  0.545356  1.000000  0.212864  1
  O  O13  1  0.545356  0.545356  0.696425  1
  O  O14  1  0.000000  0.000000  0.750436  1
  O  O15  1  0.000000  0.454644  0.787136  1
