# generated using pymatgen
data_LiMoO2
_symmetry_space_group_name_H-M   'P 1'
_cell_length_a   5.26482680
_cell_length_b   6.34305265
_cell_length_c   6.00176617
_cell_angle_alpha   121.88823642
_cell_angle_beta   90.00000000
_cell_angle_gamma   90.00000000
_symmetry_Int_Tables_number   1
_chemical_formula_structural   LiMoO2
_chemical_formula_sum   'Li4 Mo4 O8'
_cell_volume   170.18064754
_cell_formula_units_Z   4
loop_
 _symmetry_equiv_pos_site_id
 _symmetry_equiv_pos_as_xyz
  1  'x, y, z'
loop_
 _atom_site_type_symbol
 _atom_site_label
 _atom_site_symmetry_multiplicity
 _atom_site_fract_x
 _atom_site_fract_y
 _atom_site_fract_z
 _atom_site_occupancy
  Li  Li1  1  0.003538  0.251672  0.503827  1
  Li  Li2  1  0.496462  0.751672  0.003827  1
  Li  Li3  1  0.503538  0.248328  0.996173  1
  Li  Li4  1  0.996462  0.748328  0.496173  1
  Mo  Mo5  1  0.501583  0.249801  0.499616  1
  Mo  Mo6  1  0.998417  0.749801  0.999616  1
  Mo  Mo7  1  0.001583  0.250199  0.000384  1
  Mo  Mo8  1  0.498417  0.750199  0.500384  1
  O  O9  1  0.767116  0.414407  0.830322  1
  O  O10  1  0.266391  0.584093  0.669816  1
  O  O11  1  0.267116  0.085593  0.669678  1
  O  O12  1  0.766391  0.915907  0.830184  1
  O  O13  1  0.233609  0.084093  0.169816  1
  O  O14  1  0.732884  0.914407  0.330322  1
  O  O15  1  0.733609  0.415907  0.330184  1
  O  O16  1  0.232884  0.585593  0.169678  1
