# generated using pymatgen
data_LiMoO2
_symmetry_space_group_name_H-M   'P 1'
_cell_length_a   5.26442501
_cell_length_b   6.36108003
_cell_length_c   5.99755696
_cell_angle_alpha   122.03443798
_cell_angle_beta   90.00000000
_cell_angle_gamma   90.00000000
_symmetry_Int_Tables_number   1
_chemical_formula_structural   LiMoO2
_chemical_formula_sum   'Li4 Mo4 O8'
_cell_volume   170.26032020
_cell_formula_units_Z   4
loop_
 _symmetry_equiv_pos_site_id
 _symmetry_equiv_pos_as_xyz
  1  'x, y, z'
loop_
 _atom_site_type_symbol
 _atom_site_label
 _atom_site_symmetry_multiplicity
 _atom_site_fract_x
 _atom_site_fract_y
 _atom_site_fract_z
 _atom_site_occupancy
  Li  Li1  1  0.001779  0.249239  0.501503  1
  Li  Li2  1  0.498221  0.749239  0.001503  1
  Li  Li3  1  0.501779  0.250761  0.998497  1
  Li  Li4  1  0.998221  0.750761  0.498497  1
  Mo  Mo5  1  0.500738  0.249900  0.499438  1
  Mo  Mo6  1  0.999262  0.749900  0.999438  1
  Mo  Mo7  1  0.000738  0.250100  0.000562  1
  Mo  Mo8  1  0.499262  0.750100  0.500562  1
  O  O9  1  0.769436  0.413826  0.828706  1
  O  O10  1  0.269380  0.585255  0.671368  1
  O  O11  1  0.269436  0.086174  0.671294  1
  O  O12  1  0.769380  0.914745  0.828632  1
  O  O13  1  0.230620  0.085255  0.171368  1
  O  O14  1  0.730564  0.913826  0.328706  1
  O  O15  1  0.730620  0.414745  0.328632  1
  O  O16  1  0.230564  0.586174  0.171294  1
