# generated using pymatgen
data_Li2MoO3
_symmetry_space_group_name_H-M   'P 1'
_cell_length_a   5.27737734
_cell_length_b   15.83075157
_cell_length_c   10.10783145
_cell_angle_alpha   16.71624489
_cell_angle_beta   29.38559931
_cell_angle_gamma   33.43462581
_symmetry_Int_Tables_number   1
_chemical_formula_structural   Li2MoO3
_chemical_formula_sum   'Li4 Mo2 O6'
_cell_volume   119.18389273
_cell_formula_units_Z   2
loop_
 _symmetry_equiv_pos_site_id
 _symmetry_equiv_pos_as_xyz
  1  'x, y, z'
loop_
 _atom_site_type_symbol
 _atom_site_label
 _atom_site_symmetry_multiplicity
 _atom_site_fract_x
 _atom_site_fract_y
 _atom_site_fract_z
 _atom_site_occupancy
  Li  Li1  1  0.999996  0.982684  0.025976  1
  Li  Li2  1  0.000004  0.350654  0.974017  1
  Li  Li3  1  0.000000  0.666662  0.000007  1
  Li  Li4  1  0.499999  0.666664  0.500005  1
  Mo  Mo5  1  0.499994  0.000908  0.498642  1
  Mo  Mo6  1  0.500007  0.332427  0.501356  1
  O  O7  1  0.231036  0.319596  0.273574  1
  O  O8  1  0.768967  0.013738  0.726424  1
  O  O9  1  0.274594  0.666664  0.232426  1
  O  O10  1  0.768967  0.319597  0.767635  1
  O  O11  1  0.231030  0.013737  0.232364  1
  O  O12  1  0.725406  0.666668  0.767575  1
