# generated using pymatgen
data_Li4MoO5
_symmetry_space_group_name_H-M   'P 1'
_cell_length_a   14.93692469
_cell_length_b   7.93225133
_cell_length_c   5.13244903
_cell_angle_alpha   29.33792464
_cell_angle_beta   30.00133683
_cell_angle_gamma   18.87351206
_symmetry_Int_Tables_number   1
_chemical_formula_structural   Li4MoO5
_chemical_formula_sum   'Li4 Mo1 O5'
_cell_volume   93.07746794
_cell_formula_units_Z   1
loop_
 _symmetry_equiv_pos_site_id
 _symmetry_equiv_pos_as_xyz
  1  'x, y, z'
loop_
 _atom_site_type_symbol
 _atom_site_label
 _atom_site_symmetry_multiplicity
 _atom_site_fract_x
 _atom_site_fract_y
 _atom_site_fract_z
 _atom_site_occupancy
  Li  Li1  1  0.216480  0.968121  0.010947  1
  Li  Li2  1  0.409213  0.992436  0.975906  1
  Li  Li3  1  0.586830  0.013792  0.023557  1
  Li  Li4  1  0.790363  0.018417  0.990075  1
  Mo  Mo5  1  0.998724  0.951424  0.052712  1
  O  O6  1  0.185893  0.553159  0.438679  1
  O  O7  1  0.360553  0.565102  0.529952  1
  O  O8  1  0.637550  0.463362  0.449850  1
  O  O9  1  0.813177  0.474063  0.540134  1
  O  O10  1  0.998950  0.519579  0.484263  1
