# generated using pymatgen
data_Li(MoO3)3
_symmetry_space_group_name_H-M   'P 1'
_cell_length_a   7.58790603
_cell_length_b   13.46020463
_cell_length_c   16.01815177
_cell_angle_alpha   103.28965804
_cell_angle_beta   96.67261256
_cell_angle_gamma   106.93006620
_symmetry_Int_Tables_number   1
_chemical_formula_structural   Li(MoO3)3
_chemical_formula_sum   'Li8 Mo24 O72'
_cell_volume   1493.43638405
_cell_formula_units_Z   8
loop_
 _symmetry_equiv_pos_site_id
 _symmetry_equiv_pos_as_xyz
  1  'x, y, z'
loop_
 _atom_site_type_symbol
 _atom_site_label
 _atom_site_symmetry_multiplicity
 _atom_site_fract_x
 _atom_site_fract_y
 _atom_site_fract_z
 _atom_site_occupancy
  Li  Li1  1  0.762335  0.977868  0.592621  1
  Li  Li2  1  0.237665  0.022132  0.407379  1
  Li  Li3  1  0.143076  0.447757  0.135375  1
  Li  Li4  1  0.856924  0.552243  0.864625  1
  Li  Li5  1  0.530754  0.856860  0.868012  1
  Li  Li6  1  0.469246  0.143140  0.131988  1
  Li  Li7  1  0.393648  0.239423  0.598098  1
  Li  Li8  1  0.606352  0.760577  0.401902  1
  Mo  Mo9  1  0.393621  0.578265  0.895596  1
  Mo  Mo10  1  0.606379  0.421735  0.104404  1
  Mo  Mo11  1  0.020678  0.359880  0.884321  1
  Mo  Mo12  1  0.979322  0.640120  0.115679  1
  Mo  Mo13  1  0.018372  0.850756  0.895670  1
  Mo  Mo14  1  0.981628  0.149244  0.104330  1
  Mo  Mo15  1  0.380871  0.059742  0.881148  1
  Mo  Mo16  1  0.619129  0.940258  0.118852  1
  Mo  Mo17  1  0.137449  0.944637  0.163331  1
  Mo  Mo18  1  0.862551  0.055363  0.836669  1
  Mo  Mo19  1  0.498785  0.665946  0.161962  1
  Mo  Mo20  1  0.501215  0.334054  0.838038  1
  Mo  Mo21  1  0.405793  0.762082  0.601572  1
  Mo  Mo22  1  0.594207  0.237918  0.398428  1
  Mo  Mo23  1  0.253364  0.960020  0.598136  1
  Mo  Mo24  1  0.746636  0.039980  0.401864  1
  Mo  Mo25  1  0.889316  0.754663  0.593973  1
  Mo  Mo26  1  0.110684  0.245337  0.406027  1
  Mo  Mo27  1  0.758247  0.463836  0.603178  1
  Mo  Mo28  1  0.241753  0.536164  0.396822  1
  Mo  Mo29  1  0.909996  0.265421  0.598254  1
  Mo  Mo30  1  0.090004  0.734579  0.401746  1
  Mo  Mo31  1  0.269648  0.469506  0.596014  1
  Mo  Mo32  1  0.730352  0.530494  0.403986  1
  O  O33  1  0.773557  0.383839  0.855135  1
  O  O34  1  0.226443  0.616161  0.144865  1
  O  O35  1  0.556006  0.505905  0.859213  1
  O  O36  1  0.443994  0.494095  0.140787  1
  O  O37  1  0.481942  0.200137  0.851578  1
  O  O38  1  0.518058  0.799863  0.148422  1
  O  O39  1  0.565702  0.390841  0.989159  1
  O  O40  1  0.434298  0.609159  0.010841  1
  O  O41  1  0.324503  0.519804  0.707207  1
  O  O42  1  0.675497  0.480196  0.292793  1
  O  O43  1  0.133463  0.505684  0.859511  1
  O  O44  1  0.866537  0.494316  0.140489  1
  O  O45  1  0.955010  0.295725  0.710707  1
  O  O46  1  0.044990  0.704275  0.289293  1
  O  O47  1  0.894106  0.199485  0.852848  1
  O  O48  1  0.105894  0.800515  0.147152  1
  O  O49  1  0.072906  0.899104  0.010848  1
  O  O50  1  0.927094  0.100896  0.989152  1
  O  O51  1  0.935023  0.778299  0.704643  1
  O  O52  1  0.064977  0.221701  0.295357  1
  O  O53  1  0.394969  0.983739  0.145757  1
  O  O54  1  0.605031  0.016261  0.854243  1
  O  O55  1  0.878961  0.931636  0.142923  1
  O  O56  1  0.121039  0.068364  0.857077  1
  O  O57  1  0.183768  0.989315  0.277294  1
  O  O58  1  0.816232  0.010685  0.722706  1
  O  O59  1  0.174292  0.102535  0.143009  1
  O  O60  1  0.825708  0.897465  0.856991  1
  O  O61  1  0.939483  0.710214  0.868233  1
  O  O62  1  0.060517  0.289786  0.131767  1
  O  O63  1  0.751926  0.102584  0.140422  1
  O  O64  1  0.248074  0.897416  0.859578  1
  O  O65  1  0.301247  0.003370  0.711743  1
  O  O66  1  0.698753  0.996630  0.288257  1
  O  O67  1  0.565660  0.898472  0.006744  1
  O  O68  1  0.434340  0.101528  0.993256  1
  O  O69  1  0.451693  0.303398  0.723884  1
  O  O70  1  0.548307  0.696602  0.276116  1
  O  O71  1  0.740434  0.665257  0.141281  1
  O  O72  1  0.259566  0.334743  0.858719  1
  O  O73  1  0.550422  0.299742  0.131412  1
  O  O74  1  0.449578  0.700258  0.868588  1
  O  O75  1  0.061274  0.395398  0.996252  1
  O  O76  1  0.938726  0.604602  0.003748  1
  O  O77  1  0.511018  0.551920  0.427343  1
  O  O78  1  0.488982  0.448080  0.572657  1
  O  O79  1  0.007951  0.571052  0.414228  1
  O  O80  1  0.992049  0.428948  0.585772  1
  O  O81  1  0.170812  0.400210  0.440063  1
  O  O82  1  0.829188  0.599790  0.559937  1
  O  O83  1  0.294587  0.594176  0.557057  1
  O  O84  1  0.705413  0.405824  0.442943  1
  O  O85  1  0.837545  0.701062  0.429847  1
  O  O86  1  0.162455  0.298938  0.570153  1
  O  O87  1  0.468202  0.909948  0.584395  1
  O  O88  1  0.531798  0.090052  0.415605  1
  O  O89  1  0.675042  0.297224  0.572776  1
  O  O90  1  0.324958  0.702776  0.427224  1
  O  O91  1  0.148739  0.772362  0.565865  1
  O  O92  1  0.851261  0.227638  0.434135  1
  O  O93  1  0.825669  0.121033  0.559663  1
  O  O94  1  0.174331  0.878967  0.440337  1
  O  O95  1  0.442081  0.781459  0.711697  1
  O  O96  1  0.557919  0.218541  0.288303  1
  O  O97  1  0.647491  0.758021  0.566881  1
  O  O98  1  0.352509  0.241979  0.433119  1
  O  O99  1  0.979851  0.904926  0.581354  1
  O  O100  1  0.020149  0.095074  0.418646  1
  O  O101  1  0.304433  0.078538  0.563466  1
  O  O102  1  0.695567  0.921462  0.436534  1
  O  O103  1  0.197764  0.484983  0.285990  1
  O  O104  1  0.802236  0.515017  0.714010  1
