# generated using pymatgen
data_Li2Mo4O13
_symmetry_space_group_name_H-M   'P 1'
_cell_length_a   8.39412047
_cell_length_b   8.76748376
_cell_length_c   11.86346480
_cell_angle_alpha   110.95214466
_cell_angle_beta   94.44961563
_cell_angle_gamma   96.32477593
_symmetry_Int_Tables_number   1
_chemical_formula_structural   Li2Mo4O13
_chemical_formula_sum   'Li6 Mo12 O39'
_cell_volume   803.94176994
_cell_formula_units_Z   3
loop_
 _symmetry_equiv_pos_site_id
 _symmetry_equiv_pos_as_xyz
  1  'x, y, z'
loop_
 _atom_site_type_symbol
 _atom_site_label
 _atom_site_symmetry_multiplicity
 _atom_site_fract_x
 _atom_site_fract_y
 _atom_site_fract_z
 _atom_site_occupancy
  Li  Li1  1  0.692124  0.036643  0.374893  1
  Li  Li2  1  0.307876  0.963357  0.625107  1
  Li  Li3  1  0.706392  0.476370  0.989341  1
  Li  Li4  1  0.293608  0.523630  0.010659  1
  Li  Li5  1  0.896442  0.012646  0.629518  1
  Li  Li6  1  0.103558  0.987354  0.370482  1
  Mo  Mo7  1  0.028299  0.837171  0.036382  1
  Mo  Mo8  1  0.971701  0.162829  0.963618  1
  Mo  Mo9  1  0.633891  0.854655  0.035042  1
  Mo  Mo10  1  0.366109  0.145345  0.964958  1
  Mo  Mo11  1  0.773273  0.677471  0.365686  1
  Mo  Mo12  1  0.226727  0.322529  0.634314  1
  Mo  Mo13  1  0.378745  0.696613  0.363109  1
  Mo  Mo14  1  0.621255  0.303387  0.636891  1
  Mo  Mo15  1  0.584143  0.671804  0.636638  1
  Mo  Mo16  1  0.415857  0.328196  0.363362  1
  Mo  Mo17  1  0.972646  0.653896  0.635284  1
  Mo  Mo18  1  0.027354  0.346104  0.364716  1
  O  O19  1  0.936166  0.077951  0.805207  1
  O  O20  1  0.063834  0.922049  0.194793  1
  O  O21  1  0.981496  0.708051  0.790604  1
  O  O22  1  0.018504  0.291949  0.209396  1
  O  O23  1  0.889175  0.194307  0.380672  1
  O  O24  1  0.110825  0.805693  0.619328  1
  O  O25  1  0.500000  0.000000  0.000000  1
  O  O26  1  0.492842  0.675870  0.996382  1
  O  O27  1  0.507158  0.324130  0.003618  1
  O  O28  1  0.402855  0.187934  0.616312  1
  O  O29  1  0.597145  0.812066  0.383688  1
  O  O30  1  0.438970  0.466692  0.601302  1
  O  O31  1  0.561030  0.533308  0.398698  1
  O  O32  1  0.452695  0.782449  0.580844  1
  O  O33  1  0.547305  0.217551  0.419156  1
  O  O34  1  0.393610  0.235609  0.207143  1
  O  O35  1  0.606390  0.764391  0.792857  1
  O  O36  1  0.341132  0.622447  0.206218  1
  O  O37  1  0.658868  0.377553  0.793782  1
  O  O38  1  0.344821  0.062217  0.807273  1
  O  O39  1  0.655179  0.937783  0.192727  1
  O  O40  1  0.240904  0.419052  0.789113  1
  O  O41  1  0.759096  0.580948  0.210887  1
  O  O42  1  0.214417  0.236140  0.407680  1
  O  O43  1  0.785583  0.763860  0.592320  1
  O  O44  1  0.258726  0.510420  0.389489  1
  O  O45  1  0.741274  0.489580  0.610511  1
  O  O46  1  0.266764  0.860695  0.413648  1
  O  O47  1  0.733236  0.139305  0.586352  1
  O  O48  1  0.151714  1.001404  0.991562  1
  O  O49  1  0.848286  -0.001404  0.008438  1
  O  O50  1  0.189270  0.285192  0.993547  1
  O  O51  1  0.810730  0.714808  0.006453  1
  O  O52  1  0.137087  0.672117  0.997757  1
  O  O53  1  0.862913  0.327883  0.002243  1
  O  O54  1  0.083673  0.145363  0.596845  1
  O  O55  1  0.916327  0.854637  0.403155  1
  O  O56  1  0.087484  0.463236  0.581926  1
  O  O57  1  0.912516  0.536764  0.418074  1
