# generated using pymatgen
data_Li4MoO5
_symmetry_space_group_name_H-M   'P 1'
_cell_length_a   5.13460241
_cell_length_b   5.18051668
_cell_length_c   7.81392774
_cell_angle_alpha   108.43907881
_cell_angle_beta   101.82195164
_cell_angle_gamma   101.38363236
_symmetry_Int_Tables_number   1
_chemical_formula_structural   Li4MoO5
_chemical_formula_sum   'Li8 Mo2 O10'
_cell_volume   185.14337362
_cell_formula_units_Z   2
loop_
 _symmetry_equiv_pos_site_id
 _symmetry_equiv_pos_as_xyz
  1  'x, y, z'
loop_
 _atom_site_type_symbol
 _atom_site_label
 _atom_site_symmetry_multiplicity
 _atom_site_fract_x
 _atom_site_fract_y
 _atom_site_fract_z
 _atom_site_occupancy
  Li  Li1  1  0.422619  0.806133  0.297971  1
  Li  Li2  1  0.577381  0.193867  0.702029  1
  Li  Li3  1  0.000000  0.000000  0.500000  1
  Li  Li4  1  0.500000  0.000000  0.000000  1
  Li  Li5  1  0.217453  0.402466  0.902376  1
  Li  Li6  1  0.782547  0.597534  0.097624  1
  Li  Li7  1  0.306234  0.613914  0.609993  1
  Li  Li8  1  0.693766  0.386086  0.390007  1
  O  O9  1  0.574361  0.608822  0.844953  1
  O  O10  1  0.425639  0.391178  0.155047  1
  O  O11  1  0.050616  0.568429  0.335770  1
  O  O12  1  0.949384  0.431571  0.664230  1
  O  O13  1  0.132288  0.823790  0.042041  1
  O  O14  1  0.867712  0.176210  0.957959  1
  O  O15  1  0.222529  0.989106  0.751096  1
  O  O16  1  0.777471  0.010894  0.248904  1
  O  O17  1  0.332637  0.187924  0.427248  1
  O  O18  1  0.667363  0.812076  0.572752  1
  Mo  Mo19  1  0.892864  0.779102  0.782715  1
  Mo  Mo20  1  0.107136  0.220898  0.217285  1
