# generated using pymatgen
data_Li2MoO3
_symmetry_space_group_name_H-M   'P 1'
_cell_length_a   6.06354631
_cell_length_b   18.15964661
_cell_length_c   16.09507581
_cell_angle_alpha   19.20088072
_cell_angle_beta   55.26568050
_cell_angle_gamma   59.91908205
_symmetry_Int_Tables_number   1
_chemical_formula_structural   Li2MoO3
_chemical_formula_sum   'Li16 Mo8 O24'
_cell_volume   474.52421914
_cell_formula_units_Z   8
loop_
 _symmetry_equiv_pos_site_id
 _symmetry_equiv_pos_as_xyz
  1  'x, y, z'
loop_
 _atom_site_type_symbol
 _atom_site_label
 _atom_site_symmetry_multiplicity
 _atom_site_fract_x
 _atom_site_fract_y
 _atom_site_fract_z
 _atom_site_occupancy
  Li  Li1  1  0.978342  0.001669  0.009432  1
  Li  Li2  1  0.507678  0.010316  0.996843  1
  Li  Li3  1  0.505271  0.181017  0.981052  1
  Li  Li4  1  0.978833  0.485874  0.017587  1
  Li  Li5  1  0.500486  0.331836  0.999289  1
  Li  Li6  1  0.019999  0.185719  0.975491  1
  Li  Li7  1  0.500997  0.505029  0.993406  1
  Li  Li8  1  0.991814  0.332303  0.502756  1
  Li  Li9  1  0.007847  0.332694  0.993071  1
  Li  Li10  1  0.493018  0.167849  0.501644  1
  Li  Li11  1  0.490069  0.649757  0.012521  1
  Li  Li12  1  0.014281  0.666612  0.494162  1
  Li  Li13  1  0.010677  0.653777  0.010780  1
  Li  Li14  1  0.497437  0.491434  0.518607  1
  Li  Li15  1  0.992953  0.830792  0.005913  1
  Li  Li16  1  0.988069  0.001525  0.498596  1
  Mo  Mo17  1  0.486392  0.010542  0.497107  1
  Mo  Mo18  1  0.998636  0.495172  0.501605  1
  Mo  Mo19  1  0.497719  0.333592  0.500003  1
  Mo  Mo20  1  0.497498  0.826722  0.007756  1
  Mo  Mo21  1  0.019690  0.170907  0.491283  1
  Mo  Mo22  1  0.004964  0.831350  0.499447  1
  Mo  Mo23  1  0.490227  0.664492  0.506430  1
  Mo  Mo24  1  0.495437  0.832230  0.500336  1
  O  O25  1  0.231853  0.070792  0.265841  1
  O  O26  1  0.241266  0.244840  0.257755  1
  O  O27  1  0.240640  0.395975  0.270637  1
  O  O28  1  0.738043  0.079656  0.262149  1
  O  O29  1  0.713605  0.227224  0.276199  1
  O  O30  1  0.252882  0.580863  0.246665  1
  O  O31  1  0.271749  0.080000  0.753245  1
  O  O32  1  0.260949  0.264617  0.728126  1
  O  O33  1  0.261715  0.746786  0.244630  1
  O  O34  1  0.748099  0.400674  0.272070  1
  O  O35  1  0.753517  0.083203  0.747150  1
  O  O36  1  0.736800  0.582921  0.247546  1
  O  O37  1  0.249707  0.914463  0.256691  1
  O  O38  1  0.262630  0.436003  0.730725  1
  O  O39  1  0.770957  0.263002  0.734400  1
  O  O40  1  0.232914  0.571244  0.768560  1
  O  O41  1  0.762769  0.738459  0.266234  1
  O  O42  1  0.748482  0.436887  0.724360  1
  O  O43  1  0.738242  0.912864  0.255380  1
  O  O44  1  0.266048  0.776937  0.724074  1
  O  O45  1  0.755331  0.595604  0.739623  1
  O  O46  1  0.250786  0.913158  0.751540  1
  O  O47  1  0.739645  0.767990  0.726324  1
  O  O48  1  0.750984  0.921107  0.754493  1
