# generated using pymatgen
data_CsK2
_symmetry_space_group_name_H-M   'P 1'
_cell_length_a   9.06649563
_cell_length_b   9.06649563
_cell_length_c   14.84782917
_cell_angle_alpha   90.00000000
_cell_angle_beta   90.00000000
_cell_angle_gamma   119.99999997
_symmetry_Int_Tables_number   1
_chemical_formula_structural   CsK2
_chemical_formula_sum   'Cs4 K8'
_cell_volume   1056.99396350
_cell_formula_units_Z   4
loop_
 _symmetry_equiv_pos_site_id
 _symmetry_equiv_pos_as_xyz
  1  'x, y, z'
loop_
 _atom_site_type_symbol
 _atom_site_label
 _atom_site_symmetry_multiplicity
 _atom_site_fract_x
 _atom_site_fract_y
 _atom_site_fract_z
 _atom_site_occupancy
  K  K1  1  0.167987  0.335975  0.750000  1
  K  K2  1  0.832013  0.167987  0.250000  1
  K  K3  1  0.335975  0.167987  0.250000  1
  K  K4  1  0.664025  0.832013  0.750000  1
  K  K5  1  0.000000  0.000000  0.000000  1
  K  K6  1  0.000000  0.000000  0.500000  1
  K  K7  1  0.832013  0.664025  0.250000  1
  K  K8  1  0.167987  0.832013  0.750000  1
  Cs  Cs9  1  0.333333  0.666667  0.437063  1
  Cs  Cs10  1  0.666667  0.333333  0.937063  1
  Cs  Cs11  1  0.666667  0.333333  0.562937  1
  Cs  Cs12  1  0.333333  0.666667  0.062937  1
