# generated using pymatgen
data_LiMo3O8
_symmetry_space_group_name_H-M   'P 1'
_cell_length_a   10.47236434
_cell_length_b   10.47236434
_cell_length_c   10.47236434
_cell_angle_alpha   34.39552386
_cell_angle_beta   34.39552385
_cell_angle_gamma   34.39552383
_symmetry_Int_Tables_number   1
_chemical_formula_structural   LiMo3O8
_chemical_formula_sum   'Li2 Mo6 O16'
_cell_volume   326.91110671
_cell_formula_units_Z   2
loop_
 _symmetry_equiv_pos_site_id
 _symmetry_equiv_pos_as_xyz
  1  'x, y, z'
loop_
 _atom_site_type_symbol
 _atom_site_label
 _atom_site_symmetry_multiplicity
 _atom_site_fract_x
 _atom_site_fract_y
 _atom_site_fract_z
 _atom_site_occupancy
  Li  Li1  1  0.309094  0.309096  0.309095  1
  Li  Li2  1  0.809067  0.809067  0.809067  1
  O  O3  1  0.106129  0.106131  0.637019  1
  O  O4  1  0.637019  0.106131  0.106130  1
  O  O5  1  0.899851  0.354406  0.899851  1
  O  O6  1  0.606305  0.137288  0.606305  1
  O  O7  1  0.854152  0.399651  0.399651  1
  O  O8  1  0.399651  0.399651  0.854152  1
  O  O9  1  0.106131  0.637018  0.106130  1
  O  O10  1  0.354405  0.899851  0.899851  1
  O  O11  1  0.137287  0.606305  0.606305  1
  O  O12  1  0.399651  0.854152  0.399650  1
  O  O13  1  0.878763  0.878764  0.878763  1
  O  O14  1  0.606305  0.606305  0.137288  1
  O  O15  1  0.621371  0.621371  0.621372  1
  O  O16  1  0.378949  0.378949  0.378949  1
  O  O17  1  0.899850  0.899851  0.354406  1
  O  O18  1  0.121577  0.121579  0.121579  1
  Mo  Mo19  1  0.248944  0.753498  0.248943  1
  Mo  Mo20  1  0.753499  0.248943  0.248944  1
  Mo  Mo21  1  0.748767  0.253219  0.748767  1
  Mo  Mo22  1  0.248945  0.248943  0.753497  1
  Mo  Mo23  1  0.748767  0.748766  0.253220  1
  Mo  Mo24  1  0.253220  0.748766  0.748767  1
