# generated using pymatgen
data_Li4Mo3O8
_symmetry_space_group_name_H-M   'P 1'
_cell_length_a   11.01424284
_cell_length_b   11.01424245
_cell_length_c   11.01424203
_cell_angle_alpha   32.50122879
_cell_angle_beta   32.50123246
_cell_angle_gamma   32.50123549
_symmetry_Int_Tables_number   1
_chemical_formula_structural   Li4Mo3O8
_chemical_formula_sum   'Li8 Mo6 O16'
_cell_volume   343.02505205
_cell_formula_units_Z   2
loop_
 _symmetry_equiv_pos_site_id
 _symmetry_equiv_pos_as_xyz
  1  'x, y, z'
loop_
 _atom_site_type_symbol
 _atom_site_label
 _atom_site_symmetry_multiplicity
 _atom_site_fract_x
 _atom_site_fract_y
 _atom_site_fract_z
 _atom_site_occupancy
  Li  Li1  1  0.249466  0.249466  0.249466  1
  Li  Li2  1  0.180163  0.180163  0.180163  1
  Li  Li3  1  0.819837  0.819837  0.819837  1
  Li  Li4  1  0.680797  0.680797  0.680797  1
  Li  Li5  1  0.750534  0.750534  0.750534  1
  Li  Li6  1  0.000000  0.000000  0.000000  1
  Li  Li7  1  0.500000  0.500000  0.500000  1
  Li  Li8  1  0.319203  0.319203  0.319203  1
  Mo  Mo9  1  0.250193  0.749704  0.250193  1
  Mo  Mo10  1  0.749807  0.749807  0.250296  1
  Mo  Mo11  1  0.749704  0.250193  0.250193  1
  Mo  Mo12  1  0.749807  0.250296  0.749807  1
  Mo  Mo13  1  0.250296  0.749807  0.749807  1
  Mo  Mo14  1  0.250193  0.250193  0.749704  1
  O  O15  1  0.115220  0.626614  0.115220  1
  O  O16  1  0.615501  0.615501  0.126606  1
  O  O17  1  0.373386  0.884780  0.884780  1
  O  O18  1  0.115220  0.115220  0.626614  1
  O  O19  1  0.881584  0.881584  0.881584  1
  O  O20  1  0.384499  0.384499  0.873394  1
  O  O21  1  0.615501  0.126606  0.615501  1
  O  O22  1  0.873394  0.384499  0.384499  1
  O  O23  1  0.618502  0.618502  0.618502  1
  O  O24  1  0.118416  0.118416  0.118416  1
  O  O25  1  0.884780  0.884780  0.373386  1
  O  O26  1  0.384499  0.873394  0.384499  1
  O  O27  1  0.884780  0.373386  0.884780  1
  O  O28  1  0.626614  0.115220  0.115220  1
  O  O29  1  0.381498  0.381498  0.381498  1
  O  O30  1  0.126606  0.615501  0.615501  1
