# generated using pymatgen
data_LiMoO2
_symmetry_space_group_name_H-M   'P 1'
_cell_length_a   3.11109384
_cell_length_b   4.99649740
_cell_length_c   5.48602348
_cell_angle_alpha   98.56465191
_cell_angle_beta   106.47203081
_cell_angle_gamma   90.00000000
_symmetry_Int_Tables_number   1
_chemical_formula_structural   LiMoO2
_chemical_formula_sum   'Li2 Mo2 O4'
_cell_volume   80.78576543
_cell_formula_units_Z   2
loop_
 _symmetry_equiv_pos_site_id
 _symmetry_equiv_pos_as_xyz
  1  'x, y, z'
loop_
 _atom_site_type_symbol
 _atom_site_label
 _atom_site_symmetry_multiplicity
 _atom_site_fract_x
 _atom_site_fract_y
 _atom_site_fract_z
 _atom_site_occupancy
  Li  Li1  1  0.500000  0.500000  -0.000000  1
  Li  Li2  1  -0.000000  0.000000  -0.000000  1
  Mo  Mo3  1  0.753023  0.216542  0.506046  1
  Mo  Mo4  1  0.246977  0.783458  0.493954  1
  O  O5  1  0.613829  0.858595  0.227658  1
  O  O6  1  0.386171  0.141405  0.772342  1
  O  O7  1  0.859403  0.629079  0.718806  1
  O  O8  1  0.140597  0.370921  0.281194  1
