# generated using pymatgen
data_Li2Mo4O13
_symmetry_space_group_name_H-M   'P 1'
_cell_length_a   8.39816961
_cell_length_b   8.75384037
_cell_length_c   21.91256227
_cell_angle_alpha   90.00000000
_cell_angle_beta   90.00000000
_cell_angle_gamma   95.93027857
_symmetry_Int_Tables_number   1
_chemical_formula_structural   Li2Mo4O13
_chemical_formula_sum   'Li12 Mo24 O78'
_cell_volume   1602.30798450
_cell_formula_units_Z   6
loop_
 _symmetry_equiv_pos_site_id
 _symmetry_equiv_pos_as_xyz
  1  'x, y, z'
loop_
 _atom_site_type_symbol
 _atom_site_label
 _atom_site_symmetry_multiplicity
 _atom_site_fract_x
 _atom_site_fract_y
 _atom_site_fract_z
 _atom_site_occupancy
  Li  Li1  1  0.125059  0.061104  0.315751  1
  Li  Li2  1  0.457934  0.380444  0.131311  1
  Li  Li3  1  0.718286  0.096291  0.312896  1
  Li  Li4  1  0.874941  0.938896  0.815751  1
  Li  Li5  1  0.784679  0.726762  0.502079  1
  Li  Li6  1  0.215321  0.273238  0.002079  1
  Li  Li7  1  0.051647  0.427963  0.131652  1
  Li  Li8  1  0.948353  0.572037  0.631652  1
  Li  Li9  1  0.620980  0.228768  0.003766  1
  Li  Li10  1  0.281714  0.903709  0.812896  1
  Li  Li11  1  0.542066  0.619556  0.631311  1
  Li  Li12  1  0.379020  0.771232  0.503766  1
  Mo  Mo13  1  0.936274  0.563971  0.997023  1
  Mo  Mo14  1  0.051811  0.415605  0.301739  1
  Mo  Mo15  1  0.397883  0.761034  0.334640  1
  Mo  Mo16  1  0.897424  0.933258  0.997571  1
  Mo  Mo17  1  0.454970  0.416214  0.500087  1
  Mo  Mo18  1  0.130596  0.073451  0.133762  1
  Mo  Mo19  1  0.386918  0.741296  0.133800  1
  Mo  Mo20  1  0.063726  0.436029  0.497023  1
  Mo  Mo21  1  0.288046  0.914963  0.997873  1
  Mo  Mo22  1  0.102576  0.066742  0.497571  1
  Mo  Mo23  1  0.209348  0.258244  0.833462  1
  Mo  Mo24  1  0.602117  0.238966  0.834640  1
  Mo  Mo25  1  0.613082  0.258704  0.633800  1
  Mo  Mo26  1  0.445520  0.397327  0.298477  1
  Mo  Mo27  1  0.222877  0.275763  0.633853  1
  Mo  Mo28  1  0.262854  0.906829  0.635300  1
  Mo  Mo29  1  0.554480  0.602673  0.798477  1
  Mo  Mo30  1  0.711954  0.085037  0.497873  1
  Mo  Mo31  1  0.545030  0.583786  0.000087  1
  Mo  Mo32  1  0.737146  0.093171  0.135300  1
  Mo  Mo33  1  0.948189  0.584395  0.801739  1
  Mo  Mo34  1  0.869404  0.926549  0.633762  1
  Mo  Mo35  1  0.790652  0.741756  0.333462  1
  Mo  Mo36  1  0.777123  0.724237  0.133853  1
  O  O37  1  0.574386  0.585380  0.320319  1
  O  O38  1  0.761638  0.745107  0.017262  1
  O  O39  1  0.856891  0.941856  0.711607  1
  O  O40  1  0.280381  0.905754  0.314917  1
  O  O41  1  0.097497  0.413395  0.605976  1
  O  O42  1  0.276586  0.542429  0.510075  1
  O  O43  1  0.064396  0.440853  0.417650  1
  O  O44  1  0.435159  0.746768  0.816863  1
  O  O45  1  0.778974  0.707358  0.212117  1
  O  O46  1  0.723414  0.457571  0.010075  1
  O  O47  1  0.391190  0.758371  0.414024  1
  O  O48  1  0.105959  0.045465  0.019360  1
  O  O49  1  0.425171  0.075732  0.009296  1
  O  O50  1  0.082536  0.424167  0.817678  1
  O  O51  1  0.449700  0.402715  0.218962  1
  O  O52  1  0.078328  0.748544  0.818304  1
  O  O53  1  0.728617  0.096891  0.213998  1
  O  O54  1  0.225580  0.928772  0.526463  1
  O  O55  1  0.774420  0.071228  0.026463  1
  O  O56  1  0.609595  0.867935  0.318534  1
  O  O57  1  0.750703  0.420188  0.624909  1
  O  O58  1  0.249297  0.579812  0.124909  1
  O  O59  1  0.615110  0.232185  0.110868  1
  O  O60  1  0.733590  0.768967  0.613700  1
  O  O61  1  0.717966  0.103978  0.419932  1
  O  O62  1  0.386410  0.106567  0.622168  1
  O  O63  1  0.894041  0.954535  0.519360  1
  O  O64  1  0.935604  0.559147  0.917650  1
  O  O65  1  0.887559  0.946913  0.919689  1
  O  O66  1  0.062052  0.762234  0.008285  1
  O  O67  1  0.112441  0.053087  0.419689  1
  O  O68  1  0.937948  0.237766  0.508285  1
  O  O69  1  0.425614  0.414620  0.820319  1
  O  O70  1  0.574829  0.924268  0.509296  1
  O  O71  1  0.544857  0.607787  0.922171  1
  O  O72  1  0.608810  0.241629  0.914024  1
  O  O73  1  0.236189  0.289727  0.315392  1
  O  O74  1  0.238362  0.254893  0.517262  1
  O  O75  1  0.719619  0.094246  0.814917  1
  O  O76  1  0.739600  0.095601  0.608503  1
  O  O77  1  0.205203  0.256856  0.912714  1
  O  O78  1  0.221026  0.292642  0.712117  1
  O  O79  1  0.587836  0.249127  0.525256  1
  O  O80  1  0.384890  0.767815  0.610868  1
  O  O81  1  0.266410  0.231033  0.113700  1
  O  O82  1  0.763811  0.710273  0.815392  1
  O  O83  1  0.731279  0.426792  0.813729  1
  O  O84  1  0.084755  0.087451  0.617791  1
  O  O85  1  0.282034  0.896022  0.919932  1
  O  O86  1  0.390405  0.132065  0.818534  1
  O  O87  1  0.050937  0.422369  0.222496  1
  O  O88  1  0.431170  0.390261  0.611196  1
  O  O89  1  0.917464  0.575833  0.317678  1
  O  O90  1  0.455143  0.392213  0.422171  1
  O  O91  1  0.271383  0.903109  0.713998  1
  O  O92  1  0.596993  0.237785  0.711807  1
  O  O93  1  0.568830  0.609739  0.111196  1
  O  O94  1  0.550300  0.597285  0.718962  1
  O  O95  1  0.412164  0.750873  0.025256  1
  O  O96  1  0.074360  0.100933  0.812714  1
  O  O97  1  0.260400  0.904399  0.108503  1
  O  O98  1  0.048532  0.800408  0.624592  1
  O  O99  1  0.921672  0.251456  0.318304  1
  O  O100  1  0.403007  0.762215  0.211807  1
  O  O101  1  0.915245  0.912549  0.117791  1
  O  O102  1  0.564841  0.253232  0.316863  1
  O  O103  1  0.613591  0.893433  0.122168  1
  O  O104  1  0.940830  0.574777  0.520192  1
  O  O105  1  0.949063  0.577631  0.722496  1
  O  O106  1  0.593494  0.574710  0.515491  1
  O  O107  1  0.268721  0.573208  0.313729  1
  O  O108  1  0.143109  0.058144  0.211607  1
  O  O109  1  0.951468  0.199592  0.124592  1
  O  O110  1  0.059170  0.425223  0.020192  1
  O  O111  1  0.925640  0.899067  0.312714  1
  O  O112  1  0.406506  0.425290  0.015491  1
  O  O113  1  0.794797  0.743144  0.412714  1
  O  O114  1  0.902503  0.586605  0.105976  1
