# generated using pymatgen
data_Li(MoO2)2
_symmetry_space_group_name_H-M   'P 1'
_cell_length_a   6.25185783
_cell_length_b   6.29118221
_cell_length_c   6.27611534
_cell_angle_alpha   59.66597307
_cell_angle_beta   60.29317358
_cell_angle_gamma   60.15896334
_symmetry_Int_Tables_number   1
_chemical_formula_structural   Li(MoO2)2
_chemical_formula_sum   'Li2 Mo4 O8'
_cell_volume   174.69317109
_cell_formula_units_Z   2
loop_
 _symmetry_equiv_pos_site_id
 _symmetry_equiv_pos_as_xyz
  1  'x, y, z'
loop_
 _atom_site_type_symbol
 _atom_site_label
 _atom_site_symmetry_multiplicity
 _atom_site_fract_x
 _atom_site_fract_y
 _atom_site_fract_z
 _atom_site_occupancy
  Li  Li1  1  0.129438  0.129396  0.120573  1
  Li  Li2  1  0.870562  0.870604  0.879428  1
  O  O3  1  0.729265  0.734995  0.280328  1
  O  O4  1  0.734955  0.729195  0.755457  1
  O  O5  1  0.270736  0.265005  0.719673  1
  O  O6  1  0.269930  0.720944  0.261358  1
  O  O7  1  0.265046  0.270805  0.244544  1
  O  O8  1  0.720910  0.269952  0.247819  1
  O  O9  1  0.730071  0.279056  0.738642  1
  O  O10  1  0.279091  0.730048  0.752181  1
  Mo  Mo11  1  0.500000  0.500000  0.500000  1
  Mo  Mo12  1  0.500000  0.000000  0.500000  1
  Mo  Mo13  1  0.000000  0.500000  0.500000  1
  Mo  Mo14  1  0.500000  0.500000  0.000000  1
