# generated using pymatgen
data_Li2MoO4
_symmetry_space_group_name_H-M   'P 1'
_cell_length_a   14.60846935
_cell_length_b   14.60846897
_cell_length_c   9.73914991
_cell_angle_alpha   90.00000000
_cell_angle_beta   90.00000000
_cell_angle_gamma   119.99999855
_symmetry_Int_Tables_number   1
_chemical_formula_structural   Li2MoO4
_chemical_formula_sum   'Li36 Mo18 O72'
_cell_volume   1799.95275102
_cell_formula_units_Z   18
loop_
 _symmetry_equiv_pos_site_id
 _symmetry_equiv_pos_as_xyz
  1  'x, y, z'
loop_
 _atom_site_type_symbol
 _atom_site_label
 _atom_site_symmetry_multiplicity
 _atom_site_fract_x
 _atom_site_fract_y
 _atom_site_fract_z
 _atom_site_occupancy
  Li  Li1  1  0.808716  0.687941  0.266139  1
  Li  Li2  1  0.120734  0.140539  0.431570  1
  Li  Li3  1  0.545984  0.527419  0.601894  1
  Li  Li4  1  0.547248  0.524795  0.931995  1
  Li  Li5  1  0.684709  0.211522  0.097653  1
  Li  Li6  1  0.859461  0.980195  0.098237  1
  Li  Li7  1  0.526812  0.315291  0.430986  1
  Li  Li8  1  0.788150  0.475529  0.434807  1
  Li  Li9  1  0.351482  0.544973  0.432399  1
  Li  Li10  1  0.877488  0.191945  0.268926  1
  Li  Li11  1  0.119422  0.142117  0.101573  1
  Li  Li12  1  0.879225  0.191284  0.599472  1
  Li  Li13  1  0.213692  0.858485  0.266384  1
  Li  Li14  1  0.211158  0.858523  0.937303  1
  Li  Li15  1  0.454448  0.809348  0.769158  1
  Li  Li16  1  0.977549  0.452752  0.265328  1
  Li  Li17  1  0.472581  0.018566  0.268561  1
  Li  Li18  1  0.022695  0.880578  0.434906  1
  Li  Li19  1  0.788478  0.473188  0.764320  1
  Li  Li20  1  0.808055  0.685543  0.935593  1
  Li  Li21  1  0.981434  0.454016  0.935228  1
  Li  Li22  1  0.190652  0.645100  0.435824  1
  Li  Li23  1  0.475205  0.022451  0.598661  1
  Li  Li24  1  0.019805  0.879266  0.764904  1
  Li  Li25  1  0.687380  0.211850  0.768141  1
  Li  Li26  1  0.354900  0.545552  0.102491  1
  Li  Li27  1  0.455027  0.806508  0.099066  1
  Li  Li28  1  0.312059  0.120775  0.932806  1
  Li  Li29  1  0.314457  0.122512  0.602259  1
  Li  Li30  1  0.193492  0.648518  0.765733  1
  Li  Li31  1  0.857883  0.977305  0.768240  1
  Li  Li32  1  0.644792  0.786308  0.599717  1
  Li  Li33  1  0.647365  0.788842  0.270636  1
  Li  Li34  1  0.524471  0.312620  0.101474  1
  Li  Li35  1  0.141477  0.352635  0.603969  1
  Li  Li36  1  0.141515  0.355208  0.933051  1
  Mo  Mo37  1  0.470673  0.017836  0.934400  1
  Mo  Mo38  1  0.137071  0.351405  0.268287  1
  Mo  Mo39  1  0.806184  0.685351  0.600787  1
  Mo  Mo40  1  0.195306  0.647561  0.100975  1
  Mo  Mo41  1  0.861646  0.981995  0.433286  1
  Mo  Mo42  1  0.648595  0.785666  0.934954  1
  Mo  Mo43  1  0.982164  0.452837  0.601066  1
  Mo  Mo44  1  0.787000  0.471035  0.099138  1
  Mo  Mo45  1  0.214334  0.862929  0.601620  1
  Mo  Mo46  1  0.452255  0.804694  0.434308  1
  Mo  Mo47  1  0.547163  0.529327  0.267733  1
  Mo  Mo48  1  0.018005  0.879650  0.099953  1
  Mo  Mo49  1  0.352439  0.547745  0.767642  1
  Mo  Mo50  1  0.120350  0.138354  0.766620  1
  Mo  Mo51  1  0.879167  0.193816  0.934121  1
  Mo  Mo52  1  0.528965  0.315964  0.765805  1
  Mo  Mo53  1  0.684036  0.213000  0.432471  1
  Mo  Mo54  1  0.314649  0.120833  0.267454  1
  O  O55  1  0.875767  0.754317  0.447633  1
  O  O56  1  0.878410  0.124582  0.087372  1
  O  O57  1  0.206950  0.420660  0.115332  1
  O  O58  1  0.213710  0.793050  0.448665  1
  O  O59  1  0.222966  0.432227  0.768474  1
  O  O60  1  0.457570  0.888704  0.934811  1
  O  O61  1  0.431134  0.542430  0.268144  1
  O  O62  1  0.420302  0.546442  0.613985  1
  O  O63  1  0.788963  0.541375  0.252251  1
  O  O64  1  0.913279  0.453263  0.754009  1
  O  O65  1  0.672404  0.341241  0.098651  1
  O  O66  1  0.459137  0.248007  0.612606  1
  O  O67  1  0.206701  0.419564  0.421545  1
  O  O68  1  0.913095  0.453186  0.447837  1
  O  O69  1  0.791809  0.912536  0.586075  1
  O  O70  1  0.901584  0.455528  0.099209  1
  O  O71  1  0.580436  0.787137  0.088212  1
  O  O72  1  0.122463  0.208214  0.613355  1
  O  O73  1  0.325703  0.664308  0.100545  1
  O  O74  1  0.421777  0.546936  0.920397  1
  O  O75  1  0.453064  0.874841  0.587063  1
  O  O76  1  0.111296  0.568866  0.601477  1
  O  O77  1  0.992853  0.324207  0.934692  1
  O  O78  1  0.544472  0.446056  0.765876  1
  O  O79  1  0.998980  0.339235  0.602289  1
  O  O80  1  0.246172  0.121590  0.420705  1
  O  O81  1  0.660765  0.659745  0.268956  1
  O  O82  1  0.567773  0.790739  0.435140  1
  O  O83  1  0.579340  0.786291  0.781999  1
  O  O84  1  0.123037  0.221939  0.267254  1
  O  O85  1  0.331354  0.007147  0.268025  1
  O  O86  1  0.085751  0.877537  0.946689  1
  O  O87  1  0.209261  0.777034  0.101807  1
  O  O88  1  0.126140  0.579698  0.947319  1
  O  O89  1  0.453558  0.873860  0.280652  1
  O  O90  1  0.792733  0.556075  0.600320  1
  O  O91  1  0.443925  0.236658  0.266987  1
  O  O92  1  0.001755  0.993604  0.098470  1
  O  O93  1  0.991849  0.998245  0.431803  1
  O  O94  1  0.751993  0.211130  0.279273  1
  O  O95  1  0.888344  0.764457  0.100954  1
  O  O96  1  0.675793  0.668646  0.601358  1
  O  O97  1  0.338606  0.674297  0.433878  1
  O  O98  1  0.335692  0.661394  0.767212  1
  O  O99  1  0.788870  0.540863  0.945940  1
  O  O100  1  0.546814  0.459910  0.114504  1
  O  O101  1  0.658759  0.331162  0.765318  1
  O  O102  1  0.006549  0.334291  0.268758  1
  O  O103  1  0.540090  0.086905  0.781171  1
  O  O104  1  0.006396  0.008151  0.765137  1
  O  O105  1  0.752413  0.211037  0.585584  1
  O  O106  1  0.553944  0.098416  0.432542  1
  O  O107  1  0.763342  0.207267  0.933654  1
  O  O108  1  0.875418  0.753828  0.754039  1
  O  O109  1  0.876113  0.111656  0.434287  1
  O  O110  1  0.120727  0.208191  0.919409  1
  O  O111  1  0.665709  0.672258  0.935425  1
  O  O112  1  0.546737  0.460016  0.420675  1
  O  O113  1  0.098902  0.876963  0.600587  1
  O  O114  1  0.878549  0.124233  0.780967  1
  O  O115  1  0.340255  0.001020  0.935623  1
  O  O116  1  0.327742  0.993451  0.602091  1
  O  O117  1  0.087464  0.879273  0.252742  1
  O  O118  1  0.235543  0.123886  0.767621  1
  O  O119  1  0.458625  0.247587  0.918918  1
  O  O120  1  0.539984  0.086721  0.087342  1
  O  O121  1  0.125159  0.578223  0.253730  1
  O  O122  1  0.778061  0.901098  0.933921  1
  O  O123  1  0.245683  0.121451  0.114300  1
  O  O124  1  0.212863  0.793299  0.754879  1
  O  O125  1  0.668838  0.327596  0.431984  1
  O  O126  1  0.791786  0.914249  0.280023  1
