# generated using pymatgen
data_LiNO3
_symmetry_space_group_name_H-M   'P 1'
_cell_length_a   7.97647926
_cell_length_b   3.95015441
_cell_length_c   5.32735304
_cell_angle_alpha   114.73875652
_cell_angle_beta   138.47221529
_cell_angle_gamma   56.01378958
_symmetry_Int_Tables_number   1
_chemical_formula_structural   LiNO3
_chemical_formula_sum   'Li2 N2 O6'
_cell_volume   92.27498600
_cell_formula_units_Z   2
loop_
 _symmetry_equiv_pos_site_id
 _symmetry_equiv_pos_as_xyz
  1  'x, y, z'
loop_
 _atom_site_type_symbol
 _atom_site_label
 _atom_site_symmetry_multiplicity
 _atom_site_fract_x
 _atom_site_fract_y
 _atom_site_fract_z
 _atom_site_occupancy
  Li  Li1  1  0.000000  0.500000  0.000000  1
  Li  Li2  1  0.000000  0.000000  0.000000  1
  N  N3  1  0.230386  0.250000  0.460771  1
  N  N4  1  0.769614  0.750000  0.539229  1
  O  O5  1  0.373483  0.540351  0.326232  1
  O  O6  1  0.393076  0.250000  0.786152  1
  O  O7  1  0.952749  -0.040351  0.326232  1
  O  O8  1  0.626517  0.459649  0.673768  1
  O  O9  1  0.606924  0.750000  0.213848  1
  O  O10  1  0.047251  0.040351  0.673768  1
