# generated using pymatgen
data_Li7Nb8O24
_symmetry_space_group_name_H-M   'P 1'
_cell_length_a   11.19812961
_cell_length_b   9.88556468
_cell_length_c   11.18490313
_cell_angle_alpha   50.72339207
_cell_angle_beta   55.99605101
_cell_angle_gamma   28.01173614
_symmetry_Int_Tables_number   1
_chemical_formula_structural   Li7Nb8O24
_chemical_formula_sum   'Li7 Nb8 O24'
_cell_volume   450.14446430
_cell_formula_units_Z   1
loop_
 _symmetry_equiv_pos_site_id
 _symmetry_equiv_pos_as_xyz
  1  'x, y, z'
loop_
 _atom_site_type_symbol
 _atom_site_label
 _atom_site_symmetry_multiplicity
 _atom_site_fract_x
 _atom_site_fract_y
 _atom_site_fract_z
 _atom_site_occupancy
  Li  Li1  1  0.998654  0.291334  0.144969  1
  Li  Li2  1  0.997245  0.294452  0.647762  1
  Li  Li3  1  0.000531  0.727040  0.360773  1
  Li  Li4  1  0.501460  0.292704  0.646459  1
  Li  Li5  1  0.997054  0.798630  0.894176  1
  Li  Li6  1  0.501821  0.787336  0.398217  1
  Li  Li7  1  0.500701  0.792801  0.897182  1
  Nb  Nb8  1  0.000859  0.012297  0.505851  1
  Nb  Nb9  1  0.501596  0.012389  0.007468  1
  Nb  Nb10  1  0.499864  0.016225  0.508433  1
  Nb  Nb11  1  0.001688  0.517215  0.755604  1
  Nb  Nb12  1  0.998766  0.020704  0.007534  1
  Nb  Nb13  1  0.499785  0.513053  0.259658  1
  Nb  Nb14  1  0.501129  0.510289  0.759048  1
  Nb  Nb15  1  0.004046  0.505232  0.256350  1
  O  O16  1  0.308827  0.123389  0.188053  1
  O  O17  1  0.197383  0.243214  0.433253  1
  O  O18  1  0.088187  0.661621  0.124702  1
  O  O19  1  0.306126  0.125541  0.688684  1
  O  O20  1  0.377017  0.372960  0.374182  1
  O  O21  1  0.194561  0.239889  0.935930  1
  O  O22  1  0.310660  0.754172  0.062750  1
  O  O23  1  0.125080  0.625991  0.624767  1
  O  O24  1  0.809684  0.128708  0.187405  1
  O  O25  1  0.188140  0.874105  0.313687  1
  O  O26  1  0.688929  0.248191  0.437456  1
  O  O27  1  0.377534  0.371895  0.870577  1
  O  O28  1  0.622174  0.629036  0.118280  1
  O  O29  1  0.314072  0.743852  0.563167  1
  O  O30  1  0.803321  0.129848  0.684459  1
  O  O31  1  0.188322  0.866215  0.817951  1
  O  O32  1  0.875530  0.374842  0.367721  1
  O  O33  1  0.710753  0.233970  0.922985  1
  O  O34  1  0.819881  0.734247  0.062565  1
  O  O35  1  0.618310  0.633424  0.618050  1
  O  O36  1  0.694227  0.844777  0.329326  1
  O  O37  1  0.873090  0.379998  0.867379  1
  O  O38  1  0.821122  0.733074  0.563506  1
  O  O39  1  0.681871  0.874440  0.813229  1
