# generated using pymatgen
data_Li7Nb8O24
_symmetry_space_group_name_H-M   'P 1'
_cell_length_a   22.17861521
_cell_length_b   14.87455215
_cell_length_c   9.75690176
_cell_angle_alpha   27.31111478
_cell_angle_beta   51.43976162
_cell_angle_gamma   38.57016584
_symmetry_Int_Tables_number   1
_chemical_formula_structural   Li7Nb8O24
_chemical_formula_sum   'Li14 Nb16 O48'
_cell_volume   891.66683305
_cell_formula_units_Z   2
loop_
 _symmetry_equiv_pos_site_id
 _symmetry_equiv_pos_as_xyz
  1  'x, y, z'
loop_
 _atom_site_type_symbol
 _atom_site_label
 _atom_site_symmetry_multiplicity
 _atom_site_fract_x
 _atom_site_fract_y
 _atom_site_fract_z
 _atom_site_occupancy
  Li  Li1  1  0.186715  0.501615  0.249335  1
  Li  Li2  1  0.062348  0.500751  0.749208  1
  Li  Li3  1  0.062592  0.998464  0.253226  1
  Li  Li4  1  0.438112  0.499394  0.249598  1
  Li  Li5  1  0.312643  0.500306  0.749502  1
  Li  Li6  1  0.313433  0.998697  0.249283  1
  Li  Li7  1  0.561567  0.501303  0.750717  1
  Li  Li8  1  0.562357  0.999694  0.250498  1
  Li  Li9  1  0.436888  0.000606  0.750402  1
  Li  Li10  1  0.936522  0.502719  0.246897  1
  Li  Li11  1  0.812408  0.501536  0.746774  1
  Li  Li12  1  0.812652  0.999249  0.250792  1
  Li  Li13  1  0.688285  0.998385  0.750665  1
  Li  Li14  1  0.938478  0.997281  0.753103  1
  Nb  Nb15  1  0.002188  0.998176  0.999552  1
  Nb  Nb16  1  0.250152  0.000362  0.002898  1
  Nb  Nb17  1  0.125641  0.489964  0.011473  1
  Nb  Nb18  1  0.502103  0.998595  0.998694  1
  Nb  Nb19  1  0.372897  0.501405  0.001306  1
  Nb  Nb20  1  0.250191  0.506719  0.494007  1
  Nb  Nb21  1  0.749359  0.010036  0.988527  1
  Nb  Nb22  1  0.122174  0.002571  0.500201  1
  Nb  Nb23  1  0.624848  0.499638  0.997102  1
  Nb  Nb24  1  0.502538  0.493572  0.502316  1
  Nb  Nb25  1  0.372462  0.006428  0.497684  1
  Nb  Nb26  1  0.872812  0.501824  0.000448  1
  Nb  Nb27  1  0.752826  0.497429  0.499799  1
  Nb  Nb28  1  0.624809  0.993281  0.505993  1
  Nb  Nb29  1  0.001799  0.493303  0.508560  1
  Nb  Nb30  1  0.873201  0.006697  0.491439  1
  O  O31  1  0.016207  0.309558  0.128787  1
  O  O32  1  0.030827  0.121148  0.628432  1
  O  O33  1  0.170592  0.192426  0.242609  1
  O  O34  1  0.086347  0.404100  0.345410  1
  O  O35  1  0.109077  0.191647  0.871412  1
  O  O36  1  0.265246  0.309682  0.130586  1
  O  O37  1  0.043695  0.692165  0.248716  1
  O  O38  1  0.283290  0.121573  0.627613  1
  O  O39  1  0.207016  0.304061  0.755195  1
  O  O40  1  0.421908  0.186825  0.251296  1
  O  O41  1  0.137006  0.800088  0.149582  1
  O  O42  1  0.342445  0.380958  0.368436  1
  O  O43  1  0.158538  0.620947  0.627437  1
  O  O44  1  0.359192  0.192339  0.869277  1
  O  O45  1  0.081262  0.812853  0.742084  1
  O  O46  1  0.515808  0.307661  0.130723  1
  O  O47  1  0.296536  0.685978  0.254519  1
  O  O48  1  0.532556  0.119042  0.631564  1
  O  O49  1  0.217922  0.880406  0.368315  1
  O  O50  1  0.453092  0.313175  0.748704  1
  O  O51  1  0.235962  0.687007  0.869948  1
  O  O52  1  0.667984  0.195939  0.244805  1
  O  O53  1  0.389879  0.808548  0.130156  1
  O  O54  1  0.591709  0.378427  0.372387  1
  O  O55  1  0.406509  0.616298  0.633942  1
  O  O56  1  0.609754  0.190318  0.869414  1
  O  O57  1  0.339764  0.798178  0.747069  1
  O  O58  1  0.765923  0.308353  0.128588  1
  O  O59  1  0.535236  0.701822  0.252931  1
  O  O60  1  0.788653  0.095900  0.654590  1
  O  O61  1  0.468491  0.883702  0.366058  1
  O  O62  1  0.704408  0.307574  0.757391  1
  O  O63  1  0.485121  0.691452  0.869844  1
  O  O64  1  0.919914  0.190331  0.250221  1
  O  O65  1  0.639038  0.812993  0.130052  1
  O  O66  1  0.844172  0.378852  0.371568  1
  O  O67  1  0.657079  0.619594  0.631685  1
  O  O68  1  0.858793  0.190442  0.871213  1
  O  O69  1  0.578464  0.814022  0.745481  1
  O  O70  1  0.793738  0.687147  0.257916  1
  O  O71  1  0.716461  0.879053  0.372563  1
  O  O72  1  0.955086  0.309669  0.749779  1
  O  O73  1  0.737994  0.699912  0.850418  1
  O  O74  1  0.887744  0.811903  0.134306  1
  O  O75  1  0.908678  0.619290  0.630382  1
  O  O76  1  0.831305  0.807835  0.751284  1
  O  O77  1  0.966322  0.880710  0.369618  1
  O  O78  1  0.987256  0.688097  0.865694  1
