# generated using pymatgen
data_Li3Nb7O19
_symmetry_space_group_name_H-M   'P 1'
_cell_length_a   6.34286272
_cell_length_b   6.34293399
_cell_length_c   20.33741134
_cell_angle_alpha   89.99995792
_cell_angle_beta   89.99997197
_cell_angle_gamma   120.00005101
_symmetry_Int_Tables_number   1
_chemical_formula_structural   Li3Nb7O19
_chemical_formula_sum   'Li6 Nb14 O38'
_cell_volume   708.60071328
_cell_formula_units_Z   2
loop_
 _symmetry_equiv_pos_site_id
 _symmetry_equiv_pos_as_xyz
  1  'x, y, z'
loop_
 _atom_site_type_symbol
 _atom_site_label
 _atom_site_symmetry_multiplicity
 _atom_site_fract_x
 _atom_site_fract_y
 _atom_site_fract_z
 _atom_site_occupancy
  Li  Li1  1  0.999997  0.499995  0.000001  1
  Li  Li2  1  0.999997  0.499999  0.499999  1
  Li  Li3  1  0.499996  0.499996  0.000000  1
  Li  Li4  1  0.500001  0.500000  0.499999  1
  Li  Li5  1  0.499996  0.000000  0.500000  1
  Li  Li6  1  0.499998  0.000002  0.000002  1
  Nb  Nb7  1  0.305133  0.970417  0.655327  1
  Nb  Nb8  1  0.305137  0.970417  0.844677  1
  Nb  Nb9  1  0.029605  0.334725  0.655326  1
  Nb  Nb10  1  0.029597  0.334720  0.844679  1
  Nb  Nb11  1  0.999997  0.999996  0.000000  1
  Nb  Nb12  1  0.000002  0.000004  0.500001  1
  Nb  Nb13  1  0.334722  0.305122  0.155323  1
  Nb  Nb14  1  0.334713  0.305126  0.344669  1
  Nb  Nb15  1  0.665287  0.694874  0.655326  1
  Nb  Nb16  1  0.665283  0.694870  0.844673  1
  Nb  Nb17  1  0.970409  0.665280  0.155325  1
  Nb  Nb18  1  0.970393  0.665275  0.344675  1
  Nb  Nb19  1  0.694880  0.029587  0.155324  1
  Nb  Nb20  1  0.694867  0.029585  0.344672  1
  O  O21  1  0.245407  0.963185  0.555099  1
  O  O22  1  0.245414  0.963191  0.944899  1
  O  O23  1  0.291135  0.927168  0.749998  1
  O  O24  1  0.085805  0.420388  0.151870  1
  O  O25  1  0.085791  0.420376  0.348131  1
  O  O26  1  0.072843  0.363978  0.749998  1
  O  O27  1  0.334581  0.914188  0.151873  1
  O  O28  1  0.334576  0.914183  0.348127  1
  O  O29  1  0.036838  0.282240  0.555101  1
  O  O30  1  0.036831  0.282236  0.944899  1
  O  O31  1  0.000000  0.999997  0.164325  1
  O  O32  1  0.999992  0.999987  0.335677  1
  O  O33  1  0.000012  0.000009  0.664324  1
  O  O34  1  0.000013  0.000015  0.835676  1
  O  O35  1  0.333357  0.666674  0.637045  1
  O  O36  1  0.333356  0.666679  0.862956  1
  O  O37  1  0.282205  0.245390  0.055101  1
  O  O38  1  0.282209  0.245391  0.444901  1
  O  O39  1  0.363936  0.291118  0.250003  1
  O  O40  1  0.420400  0.334593  0.651869  1
  O  O41  1  0.420399  0.334592  0.848129  1
  O  O42  1  0.579604  0.665407  0.348131  1
  O  O43  1  0.579621  0.665412  0.151868  1
  O  O44  1  0.636066  0.708879  0.749997  1
  O  O45  1  0.717787  0.754601  0.555102  1
  O  O46  1  0.717784  0.754595  0.944899  1
  O  O47  1  0.666647  0.333324  0.362957  1
  O  O48  1  0.666658  0.333320  0.137043  1
  O  O49  1  0.963168  0.717769  0.055099  1
  O  O50  1  0.963168  0.717772  0.444900  1
  O  O51  1  0.665429  0.085823  0.651873  1
  O  O52  1  0.665422  0.085817  0.848126  1
  O  O53  1  0.927156  0.636021  0.250001  1
  O  O54  1  0.914210  0.579619  0.651869  1
  O  O55  1  0.914213  0.579620  0.848131  1
  O  O56  1  0.708862  0.072826  0.250002  1
  O  O57  1  0.754601  0.036813  0.055098  1
  O  O58  1  0.754592  0.036812  0.444903  1
