# generated using pymatgen
data_LiNb10O18
_symmetry_space_group_name_H-M   'P 1'
_cell_length_a   7.93633471
_cell_length_b   9.45812124
_cell_length_c   10.42199798
_cell_angle_alpha   90.00000000
_cell_angle_beta   110.45070326
_cell_angle_gamma   90.00000000
_symmetry_Int_Tables_number   1
_chemical_formula_structural   LiNb10O18
_chemical_formula_sum   'Li2 Nb20 O36'
_cell_volume   732.99833225
_cell_formula_units_Z   2
loop_
 _symmetry_equiv_pos_site_id
 _symmetry_equiv_pos_as_xyz
  1  'x, y, z'
loop_
 _atom_site_type_symbol
 _atom_site_label
 _atom_site_symmetry_multiplicity
 _atom_site_fract_x
 _atom_site_fract_y
 _atom_site_fract_z
 _atom_site_occupancy
  Li  Li1  1  0.000000  0.500000  0.500000  1
  Li  Li2  1  0.000000  0.000000  0.000000  1
  Nb  Nb3  1  0.003963  0.115788  0.668653  1
  Nb  Nb4  1  0.197180  0.373781  0.981412  1
  Nb  Nb5  1  0.179599  0.869893  0.623057  1
  Nb  Nb6  1  0.003963  0.384212  0.168653  1
  Nb  Nb7  1  0.397156  0.870507  0.939481  1
  Nb  Nb8  1  0.197180  0.126219  0.481412  1
  Nb  Nb9  1  0.395966  0.386586  0.770268  1
  Nb  Nb10  1  0.179599  0.630107  0.123057  1
  Nb  Nb11  1  0.397156  0.629493  0.439481  1
  Nb  Nb12  1  0.604034  0.886586  0.729732  1
  Nb  Nb13  1  0.395966  0.113414  0.270268  1
  Nb  Nb14  1  0.602844  0.370507  0.560519  1
  Nb  Nb15  1  0.820401  0.369893  0.876943  1
  Nb  Nb16  1  0.604034  0.613414  0.229732  1
  Nb  Nb17  1  0.802820  0.873781  0.518588  1
  Nb  Nb18  1  0.602844  0.129493  0.060519  1
  Nb  Nb19  1  0.996037  0.615788  0.831347  1
  Nb  Nb20  1  0.820401  0.130107  0.376943  1
  Nb  Nb21  1  0.802820  0.626219  0.018588  1
  Nb  Nb22  1  0.996037  0.884212  0.331347  1
  O  O23  1  0.010701  0.237605  0.850316  1
  O  O24  1  0.195339  0.753046  0.961133  1
  O  O25  1  0.199589  0.987238  0.803791  1
  O  O26  1  0.199645  0.494833  0.802743  1
  O  O27  1  0.010701  0.262395  0.350316  1
  O  O28  1  0.202143  0.252932  0.645614  1
  O  O29  1  0.195339  0.746954  0.461133  1
  O  O30  1  0.417650  0.256705  0.931663  1
  O  O31  1  0.411322  0.763994  0.774337  1
  O  O32  1  0.199589  0.512762  0.303791  1
  O  O33  1  0.199645  0.005167  0.302743  1
  O  O34  1  0.399047  0.996935  0.608592  1
  O  O35  1  0.394732  0.492250  0.598077  1
  O  O36  1  0.202143  0.247068  0.145614  1
  O  O37  1  0.605268  0.992250  0.901923  1
  O  O38  1  0.600953  0.496935  0.891408  1
  O  O39  1  0.417650  0.243295  0.431663  1
  O  O40  1  0.588678  0.263994  0.725663  1
  O  O41  1  0.411322  0.736006  0.274337  1
  O  O42  1  0.582350  0.756705  0.568337  1
  O  O43  1  0.399047  0.503065  0.108592  1
  O  O44  1  0.394732  0.007750  0.098077  1
  O  O45  1  0.797857  0.752932  0.854386  1
  O  O46  1  0.605268  0.507750  0.401923  1
  O  O47  1  0.600953  0.003065  0.391408  1
  O  O48  1  0.800355  0.994833  0.697257  1
  O  O49  1  0.800411  0.487238  0.696209  1
  O  O50  1  0.588678  0.236006  0.225663  1
  O  O51  1  0.582350  0.743295  0.068337  1
  O  O52  1  0.804661  0.253046  0.538867  1
  O  O53  1  0.797857  0.747068  0.354386  1
  O  O54  1  0.989299  0.737605  0.649684  1
  O  O55  1  0.800355  0.505167  0.197257  1
  O  O56  1  0.800411  0.012762  0.196209  1
  O  O57  1  0.804661  0.246954  0.038867  1
  O  O58  1  0.989299  0.762395  0.149684  1
