# generated using pymatgen
data_Li20Nb19O60
_symmetry_space_group_name_H-M   'P 1'
_cell_length_a   5.60124231
_cell_length_b   11.22887059
_cell_length_c   56.18149924
_cell_angle_alpha   55.59865515
_cell_angle_beta   55.72011340
_cell_angle_gamma   55.62501827
_symmetry_Int_Tables_number   1
_chemical_formula_structural   Li20Nb19O60
_chemical_formula_sum   'Li40 Nb38 O120'
_cell_volume   2246.28922203
_cell_formula_units_Z   2
loop_
 _symmetry_equiv_pos_site_id
 _symmetry_equiv_pos_as_xyz
  1  'x, y, z'
loop_
 _atom_site_type_symbol
 _atom_site_label
 _atom_site_symmetry_multiplicity
 _atom_site_fract_x
 _atom_site_fract_y
 _atom_site_fract_z
 _atom_site_occupancy
  Li  Li1  1  0.301899  0.135655  0.027101  1
  Li  Li2  1  0.270952  0.648327  0.027381  1
  Li  Li3  1  0.273143  0.135362  0.130047  1
  Li  Li4  1  0.782252  0.391885  0.078347  1
  Li  Li5  1  0.305782  0.134700  0.226943  1
  Li  Li6  1  0.282874  0.640102  0.127981  1
  Li  Li7  1  0.768890  0.392383  0.178727  1
  Li  Li8  1  0.788225  0.885460  0.078010  1
  Li  Li9  1  0.280195  0.140800  0.328225  1
  Li  Li10  1  0.272017  0.649005  0.227267  1
  Li  Li11  1  0.781329  0.392583  0.278330  1
  Li  Li12  1  0.796877  0.903447  0.178564  1
  Li  Li13  1  0.283497  0.639114  0.328319  1
  Li  Li14  1  0.282232  0.140444  0.428029  1
  Li  Li15  1  0.781298  0.390904  0.378000  1
  Li  Li16  1  0.788349  0.886281  0.277911  1
  Li  Li17  1  0.281687  0.140635  0.528118  1
  Li  Li18  1  0.281695  0.640780  0.428107  1
  Li  Li19  1  0.781166  0.390830  0.478128  1
  Li  Li20  1  0.781148  0.890998  0.378199  1
  Li  Li21  1  0.281338  0.140647  0.628149  1
  Li  Li22  1  0.281703  0.640635  0.528106  1
  Li  Li23  1  0.781263  0.390706  0.578142  1
  Li  Li24  1  0.781244  0.890813  0.478106  1
  Li  Li25  1  0.280615  0.140690  0.728217  1
  Li  Li26  1  0.281366  0.640633  0.628148  1
  Li  Li27  1  0.781298  0.390439  0.678199  1
  Li  Li28  1  0.781274  0.890708  0.578140  1
  Li  Li29  1  0.280496  0.640745  0.728224  1
  Li  Li30  1  0.279600  0.141234  0.828226  1
  Li  Li31  1  0.781505  0.389903  0.778295  1
  Li  Li32  1  0.781259  0.890443  0.678208  1
  Li  Li33  1  0.273791  0.134247  0.930153  1
  Li  Li34  1  0.279484  0.640801  0.828291  1
  Li  Li35  1  0.783802  0.389736  0.878055  1
  Li  Li36  1  0.781812  0.889931  0.778239  1
  Li  Li37  1  0.282098  0.642196  0.927657  1
  Li  Li38  1  0.769450  0.391697  0.978925  1
  Li  Li39  1  0.782959  0.889397  0.878221  1
  Li  Li40  1  0.799978  0.903750  0.978127  1
  Nb  Nb41  1  0.001343  0.503770  0.998650  1
  Nb  Nb42  1  0.000671  0.995226  0.100593  1
  Nb  Nb43  1  0.502239  0.254476  0.049803  1
  Nb  Nb44  1  0.996390  0.497460  0.100825  1
  Nb  Nb45  1  0.500727  0.249953  0.150208  1
  Nb  Nb46  1  0.487216  0.748384  0.052126  1
  Nb  Nb47  1  0.002071  0.504382  0.198527  1
  Nb  Nb48  1  0.998426  0.998615  0.300355  1
  Nb  Nb49  1  0.505707  0.252709  0.249910  1
  Nb  Nb50  1  0.498097  0.754350  0.149828  1
  Nb  Nb51  1  0.998514  0.000493  0.400037  1
  Nb  Nb52  1  0.000511  0.499824  0.300040  1
  Nb  Nb53  1  0.499011  0.251031  0.350019  1
  Nb  Nb54  1  0.495535  0.750115  0.251569  1
  Nb  Nb55  1  0.998984  0.500455  0.400161  1
  Nb  Nb56  1  0.999226  0.000472  0.500097  1
  Nb  Nb57  1  0.500264  0.250295  0.450027  1
  Nb  Nb58  1  0.501133  0.749121  0.350004  1
  Nb  Nb59  1  0.999209  0.000237  0.600129  1
  Nb  Nb60  1  0.998957  0.500449  0.500106  1
  Nb  Nb61  1  0.499679  0.250459  0.550037  1
  Nb  Nb62  1  0.499641  0.750531  0.450009  1
  Nb  Nb63  1  0.999362  -0.000016  0.700129  1
  Nb  Nb64  1  0.999207  0.500248  0.600129  1
  Nb  Nb65  1  0.499196  0.250509  0.650063  1
  Nb  Nb66  1  0.499729  0.750479  0.550037  1
  Nb  Nb67  1  -0.000647  0.999804  0.800088  1
  Nb  Nb68  1  0.999370  0.500022  0.700121  1
  Nb  Nb69  1  0.498900  0.250553  0.750015  1
  Nb  Nb70  1  0.499221  0.750506  0.650063  1
  Nb  Nb71  1  0.001165  0.998513  0.900045  1
  Nb  Nb72  1  -0.000186  0.499595  0.800067  1
  Nb  Nb73  1  0.498062  0.250257  0.850163  1
  Nb  Nb74  1  0.498744  0.750591  0.750032  1
  Nb  Nb75  1  0.996685  0.499461  0.900372  1
  Nb  Nb76  1  0.498042  0.750355  0.849976  1
  Nb  Nb77  1  0.502000  0.250737  0.949636  1
  Nb  Nb78  1  0.499340  0.755117  0.949557  1
  O  O79  1  0.125618  0.174880  0.071246  1
  O  O80  1  0.352582  0.364473  0.011180  1
  O  O81  1  0.667140  0.058352  0.041369  1
  O  O82  1  0.209999  0.433694  0.060979  1
  O  O83  1  0.609688  0.114705  0.086256  1
  O  O84  1  0.107957  0.679624  0.071983  1
  O  O85  1  0.112987  0.204298  0.168209  1
  O  O86  1  0.865175  0.303180  0.021653  1
  O  O87  1  0.418063  0.840367  0.010911  1
  O  O88  1  0.361066  0.358459  0.110992  1
  O  O89  1  0.709207  0.558504  0.035490  1
  O  O90  1  0.729766  0.056988  0.135034  1
  O  O91  1  0.222370  0.436199  0.160645  1
  O  O92  1  0.215723  0.934569  0.060315  1
  O  O93  1  0.551574  0.107443  0.187200  1
  O  O94  1  0.606572  0.603565  0.087495  1
  O  O95  1  0.119679  0.176389  0.271849  1
  O  O96  1  0.113032  0.680721  0.171720  1
  O  O97  1  0.872913  0.303698  0.121326  1
  O  O98  1  0.860343  0.785741  0.022942  1
  O  O99  1  0.349859  0.365872  0.211528  1
  O  O100  1  0.366790  0.856549  0.110426  1
  O  O101  1  0.661677  0.059269  0.241552  1
  O  O102  1  0.720202  0.552056  0.136127  1
  O  O103  1  0.225729  0.932617  0.157282  1
  O  O104  1  0.207367  0.431572  0.261827  1
  O  O105  1  0.606813  0.114742  0.286728  1
  O  O106  1  0.608814  0.609130  0.186335  1
  O  O107  1  0.105252  0.679737  0.272592  1
  O  O108  1  0.109328  0.178916  0.372142  1
  O  O109  1  0.865423  0.302191  0.222043  1
  O  O110  1  0.869991  0.804870  0.121183  1
  O  O111  1  0.359916  0.358162  0.311340  1
  O  O112  1  0.418522  0.832632  0.211657  1
  O  O113  1  0.706784  0.559174  0.235540  1
  O  O114  1  0.722585  0.054305  0.335868  1
  O  O115  1  0.220022  0.429033  0.361200  1
  O  O116  1  0.212794  0.934222  0.260811  1
  O  O117  1  0.609915  0.108997  0.385932  1
  O  O118  1  0.606970  0.602727  0.287787  1
  O  O119  1  0.109907  0.179239  0.472082  1
  O  O120  1  0.109363  0.679484  0.372145  1
  O  O121  1  0.862149  0.786395  0.223218  1
  O  O122  1  0.860203  0.301849  0.322548  1
  O  O123  1  0.358264  0.360098  0.411108  1
  O  O124  1  0.359520  0.858685  0.311201  1
  O  O125  1  0.720125  0.055060  0.435829  1
  O  O126  1  0.719980  0.554594  0.336123  1
  O  O127  1  0.221534  0.927916  0.361133  1
  O  O128  1  0.220670  0.428833  0.461088  1
  O  O129  1  0.610257  0.609852  0.385909  1
  O  O130  1  0.610218  0.109788  0.485852  1
  O  O131  1  0.110119  0.179189  0.572034  1
  O  O132  1  0.109604  0.679204  0.472095  1
  O  O133  1  0.858989  0.304836  0.422140  1
  O  O134  1  0.861010  0.804766  0.321929  1
  O  O135  1  0.357955  0.859725  0.411153  1
  O  O136  1  0.358504  0.359905  0.511075  1
  O  O137  1  0.720425  0.554794  0.435876  1
  O  O138  1  0.720647  0.054970  0.535816  1
  O  O139  1  0.220644  0.429029  0.561028  1
  O  O140  1  0.220438  0.928927  0.461097  1
  O  O141  1  0.610280  0.109888  0.585822  1
  O  O142  1  0.610189  0.609729  0.485861  1
  O  O143  1  0.110605  0.179123  0.671958  1
  O  O144  1  0.110141  0.679186  0.572034  1
  O  O145  1  0.858672  0.804486  0.422136  1
  O  O146  1  0.858745  0.304866  0.522079  1
  O  O147  1  0.358839  0.359970  0.611001  1
  O  O148  1  0.358533  0.859944  0.511069  1
  O  O149  1  0.720888  0.054986  0.635779  1
  O  O150  1  0.720582  0.554966  0.535817  1
  O  O151  1  0.220614  0.429256  0.660944  1
  O  O152  1  0.220637  0.929024  0.561032  1
  O  O153  1  0.610245  0.110052  0.685786  1
  O  O154  1  0.610271  0.609897  0.585821  1
  O  O155  1  0.110606  0.679147  0.671957  1
  O  O156  1  0.111308  0.179050  0.771803  1
  O  O157  1  0.858843  0.804853  0.522087  1
  O  O158  1  0.858697  0.305069  0.622025  1
  O  O159  1  0.359353  0.359908  0.710888  1
  O  O160  1  0.358821  0.859971  0.611004  1
  O  O161  1  0.721138  0.055007  0.735754  1
  O  O162  1  0.720860  0.554999  0.635783  1
  O  O163  1  0.220293  0.429560  0.760802  1
  O  O164  1  0.220656  0.929251  0.660937  1
  O  O165  1  0.610460  0.110283  0.785743  1
  O  O166  1  0.610287  0.610034  0.685788  1
  O  O167  1  0.114649  0.178642  0.871479  1
  O  O168  1  0.111292  0.678907  0.771816  1
  O  O169  1  0.858533  0.305365  0.721912  1
  O  O170  1  0.858705  0.805082  0.622023  1
  O  O171  1  0.359364  0.859914  0.710878  1
  O  O172  1  0.360532  0.359575  0.810711  1
  O  O173  1  0.722698  0.054727  0.835693  1
  O  O174  1  0.721184  0.554981  0.735751  1
  O  O175  1  0.220337  0.929514  0.760802  1
  O  O176  1  0.221480  0.430446  0.860437  1
  O  O177  1  0.612590  0.110424  0.885651  1
  O  O178  1  0.610294  0.610335  0.785756  1
  O  O179  1  0.116020  0.200425  0.969232  1
  O  O180  1  0.113642  0.678875  0.871604  1
  O  O181  1  0.858145  0.305836  0.821730  1
  O  O182  1  0.858452  0.805378  0.721909  1
  O  O183  1  0.360412  0.859701  0.810736  1
  O  O184  1  0.361641  0.359898  0.910795  1
  O  O185  1  0.728655  0.057226  0.935050  1
  O  O186  1  0.722404  0.554688  0.835725  1
  O  O187  1  0.224322  0.436133  0.960262  1
  O  O188  1  0.221970  0.930172  0.860483  1
  O  O189  1  0.550111  0.107146  0.987237  1
  O  O190  1  0.611198  0.610205  0.885642  1
  O  O191  1  0.113818  0.679996  0.971667  1
  O  O192  1  0.873295  0.305354  0.921115  1
  O  O193  1  0.858300  0.805690  0.821742  1
  O  O194  1  0.366265  0.857400  0.910230  1
  O  O195  1  0.721651  0.552388  0.935849  1
  O  O196  1  0.224605  0.932813  0.957222  1
  O  O197  1  0.609552  0.609574  0.986219  1
  O  O198  1  0.868607  0.805140  0.921206  1
