# generated using pymatgen
data_LiNb7O12
_symmetry_space_group_name_H-M   'P 1'
_cell_length_a   10.87106108
_cell_length_b   9.60351896
_cell_length_c   10.40786574
_cell_angle_alpha   90.00000000
_cell_angle_beta   104.76187277
_cell_angle_gamma   90.00000000
_symmetry_Int_Tables_number   1
_chemical_formula_structural   LiNb7O12
_chemical_formula_sum   'Li4 Nb28 O48'
_cell_volume   1050.72101243
_cell_formula_units_Z   4
loop_
 _symmetry_equiv_pos_site_id
 _symmetry_equiv_pos_as_xyz
  1  'x, y, z'
loop_
 _atom_site_type_symbol
 _atom_site_label
 _atom_site_symmetry_multiplicity
 _atom_site_fract_x
 _atom_site_fract_y
 _atom_site_fract_z
 _atom_site_occupancy
  Li  Li1  1  0.419511  0.069282  0.527644  1
  Li  Li2  1  0.419511  0.430718  0.027644  1
  Li  Li3  1  0.580489  0.569282  0.972356  1
  Li  Li4  1  0.580489  0.930718  0.472356  1
  Nb  Nb5  1  0.000724  0.890575  0.658386  1
  Nb  Nb6  1  0.145451  0.870404  0.962257  1
  Nb  Nb7  1  0.000724  0.609425  0.158386  1
  Nb  Nb8  1  0.149791  0.368394  0.617859  1
  Nb  Nb9  1  0.145451  0.629596  0.462257  1
  Nb  Nb10  1  0.278359  0.119118  0.907413  1
  Nb  Nb11  1  0.282454  0.622660  0.744847  1
  Nb  Nb12  1  0.149791  0.131606  0.117859  1
  Nb  Nb13  1  0.278359  0.380882  0.407413  1
  Nb  Nb14  1  0.282454  0.877340  0.244847  1
  Nb  Nb15  1  0.421723  0.377372  0.689631  1
  Nb  Nb16  1  0.412692  0.629837  0.536846  1
  Nb  Nb17  1  0.587308  0.129837  0.963154  1
  Nb  Nb18  1  0.421723  0.122628  0.189631  1
  Nb  Nb19  1  0.578277  0.877372  0.810369  1
  Nb  Nb20  1  0.412692  0.870163  0.036846  1
  Nb  Nb21  1  0.587308  0.370163  0.463154  1
  Nb  Nb22  1  0.578277  0.622628  0.310369  1
  Nb  Nb23  1  0.717546  0.122660  0.755153  1
  Nb  Nb24  1  0.721641  0.619118  0.592587  1
  Nb  Nb25  1  0.850209  0.868394  0.882141  1
  Nb  Nb26  1  0.717546  0.377340  0.255153  1
  Nb  Nb27  1  0.721641  0.880882  0.092587  1
  Nb  Nb28  1  0.854549  0.370404  0.537743  1
  Nb  Nb29  1  0.850209  0.631606  0.382141  1
  Nb  Nb30  1  0.999276  0.390575  0.841614  1
  Nb  Nb31  1  0.854549  0.129596  0.037743  1
  Nb  Nb32  1  0.999276  0.109425  0.341614  1
  O  O33  1  0.000302  0.265999  0.677859  1
  O  O34  1  0.000000  0.000000  0.500000  1
  O  O35  1  0.000000  0.500000  0.500000  1
  O  O36  1  0.139567  0.250703  0.947202  1
  O  O37  1  0.138074  0.994695  0.785373  1
  O  O38  1  0.000302  0.234001  0.177859  1
  O  O39  1  0.140111  0.492090  0.788587  1
  O  O40  1  0.135462  0.748398  0.625724  1
  O  O41  1  0.000000  0.000000  0.000000  1
  O  O42  1  0.000000  0.500000  0.000000  1
  O  O43  1  0.139567  0.249297  0.447202  1
  O  O44  1  0.279998  0.749276  0.912269  1
  O  O45  1  0.138074  0.505305  0.285373  1
  O  O46  1  0.140111  0.007910  0.288587  1
  O  O47  1  0.135462  0.751602  0.125724  1
  O  O48  1  0.286085  0.248192  0.733659  1
  O  O49  1  0.279998  0.750724  0.412269  1
  O  O50  1  0.423766  0.497917  0.854019  1
  O  O51  1  0.430251  0.996990  0.866201  1
  O  O52  1  0.286085  0.251808  0.233659  1
  O  O53  1  0.425634  0.745343  0.703147  1
  O  O54  1  0.428914  0.262197  0.518312  1
  O  O55  1  0.423766  0.002083  0.354019  1
  O  O56  1  0.430251  0.503010  0.366201  1
  O  O57  1  0.571086  0.762197  0.981688  1
  O  O58  1  0.425634  0.754657  0.203147  1
  O  O59  1  0.574366  0.245343  0.796853  1
  O  O60  1  0.428914  0.237803  0.018312  1
  O  O61  1  0.569749  0.496990  0.633799  1
  O  O62  1  0.576234  0.997917  0.645981  1
  O  O63  1  0.571086  0.737803  0.481688  1
  O  O64  1  0.574366  0.254657  0.296853  1
  O  O65  1  0.713915  0.748192  0.766341  1
  O  O66  1  0.569749  0.003010  0.133799  1
  O  O67  1  0.576234  0.502083  0.145981  1
  O  O68  1  0.720002  0.249276  0.587731  1
  O  O69  1  0.713915  0.751808  0.266341  1
  O  O70  1  0.864538  0.248398  0.874276  1
  O  O71  1  0.859889  0.992090  0.711413  1
  O  O72  1  0.861926  0.494695  0.714627  1
  O  O73  1  0.720002  0.250724  0.087731  1
  O  O74  1  0.860433  0.750703  0.552798  1
  O  O75  1  0.864538  0.251602  0.374276  1
  O  O76  1  0.859889  0.507910  0.211413  1
  O  O77  1  0.999698  0.765999  0.822141  1
  O  O78  1  0.861926  0.005305  0.214627  1
  O  O79  1  0.860433  0.749297  0.052798  1
  O  O80  1  0.999698  0.734001  0.322141  1
