# generated using pymatgen
data_LiNbO3
_symmetry_space_group_name_H-M   'P 1'
_cell_length_a   5.58864927
_cell_length_b   5.58154773
_cell_length_c   22.36746905
_cell_angle_alpha   55.80107034
_cell_angle_beta   55.77090041
_cell_angle_gamma   55.85315957
_symmetry_Int_Tables_number   1
_chemical_formula_structural   LiNbO3
_chemical_formula_sum   'Li8 Nb8 O24'
_cell_volume   445.40874413
_cell_formula_units_Z   8
loop_
 _symmetry_equiv_pos_site_id
 _symmetry_equiv_pos_as_xyz
  1  'x, y, z'
loop_
 _atom_site_type_symbol
 _atom_site_label
 _atom_site_symmetry_multiplicity
 _atom_site_fract_x
 _atom_site_fract_y
 _atom_site_fract_z
 _atom_site_occupancy
  Li  Li1  1  0.219569  0.221568  0.058307  1
  Li  Li2  1  0.293276  0.292332  0.324418  1
  Li  Li3  1  0.720715  0.720248  0.180742  1
  Li  Li4  1  0.296800  0.295029  0.572356  1
  Li  Li5  1  0.794447  0.796826  0.447845  1
  Li  Li6  1  0.295083  0.294782  0.823047  1
  Li  Li7  1  0.794817  0.796330  0.697638  1
  Li  Li8  1  0.791247  0.790544  0.947987  1
  Nb  Nb9  1  0.013668  0.005691  0.003824  1
  Nb  Nb10  1  0.011569  0.007027  0.254943  1
  Nb  Nb11  1  0.497981  0.504483  0.131576  1
  Nb  Nb12  1  0.016326  0.016234  0.503442  1
  Nb  Nb13  1  0.518373  0.516112  0.377986  1
  Nb  Nb14  1  0.015989  0.016646  0.753047  1
  Nb  Nb15  1  0.516708  0.516048  0.628363  1
  Nb  Nb16  1  0.516021  0.515983  0.877589  1
  O  O17  1  0.124390  0.375679  0.186221  1
  O  O18  1  0.373297  0.759268  0.030526  1
  O  O19  1  0.756284  0.121039  0.093574  1
  O  O20  1  0.257340  0.872814  0.156168  1
  O  O21  1  0.625438  0.259896  0.218467  1
  O  O22  1  0.123612  0.376102  0.434353  1
  O  O23  1  0.869586  0.626167  0.060691  1
  O  O24  1  0.374511  0.734811  0.281383  1
  O  O25  1  0.738133  0.124168  0.343972  1
  O  O26  1  0.237076  0.875646  0.405783  1
  O  O27  1  0.625143  0.235123  0.468567  1
  O  O28  1  0.123652  0.376567  0.684238  1
  O  O29  1  0.878128  0.624283  0.311421  1
  O  O30  1  0.375266  0.737563  0.530963  1
  O  O31  1  0.735262  0.125283  0.593691  1
  O  O32  1  0.237267  0.876831  0.655551  1
  O  O33  1  0.624904  0.235756  0.718497  1
  O  O34  1  0.121369  0.373290  0.935966  1
  O  O35  1  0.876964  0.623051  0.559126  1
  O  O36  1  0.375783  0.734705  0.780643  1
  O  O37  1  0.734583  0.124118  0.843407  1
  O  O38  1  0.236880  0.876667  0.905231  1
  O  O39  1  0.620745  0.237248  0.967925  1
  O  O40  1  0.876197  0.622443  0.809127  1
