# generated using pymatgen
data_Li5NbO5
_symmetry_space_group_name_H-M   'P 1'
_cell_length_a   5.50807780
_cell_length_b   5.50807780
_cell_length_c   9.46069535
_cell_angle_alpha   78.95406083
_cell_angle_beta   101.04593917
_cell_angle_gamma   62.96373303
_symmetry_Int_Tables_number   1
_chemical_formula_structural   Li5NbO5
_chemical_formula_sum   'Li10 Nb2 O10'
_cell_volume   237.83285486
_cell_formula_units_Z   2
loop_
 _symmetry_equiv_pos_site_id
 _symmetry_equiv_pos_as_xyz
  1  'x, y, z'
loop_
 _atom_site_type_symbol
 _atom_site_label
 _atom_site_symmetry_multiplicity
 _atom_site_fract_x
 _atom_site_fract_y
 _atom_site_fract_z
 _atom_site_occupancy
  Li  Li1  1  0.257032  0.897303  0.561252  1
  Li  Li2  1  0.502612  0.765597  0.957731  1
  Li  Li3  1  0.422018  0.422018  0.750000  1
  Li  Li4  1  0.102697  0.742968  0.061252  1
  Li  Li5  1  0.234403  0.497388  0.457731  1
  Li  Li6  1  0.765597  0.502612  0.542269  1
  Li  Li7  1  0.897303  0.257032  0.938748  1
  Li  Li8  1  0.577982  0.577982  0.250000  1
  Li  Li9  1  0.497388  0.234403  0.042269  1
  Li  Li10  1  0.742968  0.102697  0.438748  1
  Nb  Nb11  1  0.837834  0.837834  0.750000  1
  Nb  Nb12  1  0.162166  0.162166  0.250000  1
  O  O13  1  0.220684  0.621727  0.894513  1
  O  O14  1  0.017805  0.708115  0.588623  1
  O  O15  1  0.378273  0.779316  0.394513  1
  O  O16  1  0.291885  0.982195  0.088623  1
  O  O17  1  0.636339  0.636339  0.750000  1
  O  O18  1  0.363661  0.363661  0.250000  1
  O  O19  1  0.708115  0.017805  0.911377  1
  O  O20  1  0.621727  0.220684  0.605487  1
  O  O21  1  0.982195  0.291885  0.411377  1
  O  O22  1  0.779316  0.378273  0.105487  1
