# generated using pymatgen
data_LiNbO3
_symmetry_space_group_name_H-M   'P 1'
_cell_length_a   5.27535192
_cell_length_b   5.67375565
_cell_length_c   10.04535139
_cell_angle_alpha   93.62880011
_cell_angle_beta   91.95049232
_cell_angle_gamma   57.46865890
_symmetry_Int_Tables_number   1
_chemical_formula_structural   LiNbO3
_chemical_formula_sum   'Li4 Nb4 O12'
_cell_volume   252.98416474
_cell_formula_units_Z   4
loop_
 _symmetry_equiv_pos_site_id
 _symmetry_equiv_pos_as_xyz
  1  'x, y, z'
loop_
 _atom_site_type_symbol
 _atom_site_label
 _atom_site_symmetry_multiplicity
 _atom_site_fract_x
 _atom_site_fract_y
 _atom_site_fract_z
 _atom_site_occupancy
  Li  Li1  1  0.741995  0.378098  0.499701  1
  Li  Li2  1  0.513218  0.492905  0.000175  1
  Li  Li3  1  0.486782  0.006122  0.500175  1
  Li  Li4  1  0.258005  0.120094  0.999701  1
  Nb  Nb5  1  0.853247  0.572888  0.237331  1
  Nb  Nb6  1  0.852727  0.073984  0.762588  1
  Nb  Nb7  1  0.147273  0.926711  0.262588  1
  Nb  Nb8  1  0.146753  0.426135  0.737331  1
  O  O9  1  0.843048  0.909082  0.350168  1
  O  O10  1  0.842646  0.748050  0.649791  1
  O  O11  1  0.909983  0.356881  0.866956  1
  O  O12  1  0.910461  0.232739  0.132957  1
  O  O13  1  0.500734  0.802623  0.125618  1
  O  O14  1  0.499759  0.696850  0.374317  1
  O  O15  1  0.499266  0.303357  0.625619  1
  O  O16  1  0.500241  0.196609  0.874317  1
  O  O17  1  0.156951  0.752130  0.850168  1
  O  O18  1  0.157354  0.590695  0.149791  1
  O  O19  1  0.090017  0.266864  0.366956  1
  O  O20  1  0.089539  0.143201  0.632957  1
