# generated using pymatgen
data_Li7Nb12O24
_symmetry_space_group_name_H-M   'P 1'
_cell_length_a   8.92551518
_cell_length_b   5.14690719
_cell_length_c   11.03008437
_cell_angle_alpha   76.39845968
_cell_angle_beta   97.75034981
_cell_angle_gamma   89.99704182
_symmetry_Int_Tables_number   1
_chemical_formula_structural   Li7Nb12O24
_chemical_formula_sum   'Li7 Nb12 O24'
_cell_volume   487.73355234
_cell_formula_units_Z   1
loop_
 _symmetry_equiv_pos_site_id
 _symmetry_equiv_pos_as_xyz
  1  'x, y, z'
loop_
 _atom_site_type_symbol
 _atom_site_label
 _atom_site_symmetry_multiplicity
 _atom_site_fract_x
 _atom_site_fract_y
 _atom_site_fract_z
 _atom_site_occupancy
  Li  Li1  1  0.000036  0.003072  0.000154  1
  Li  Li2  1  0.166655  0.496906  0.999835  1
  Li  Li3  1  0.249747  0.250249  0.499466  1
  Li  Li4  1  0.583312  0.250002  0.499967  1
  Li  Li5  1  0.499984  0.496903  0.999862  1
  Li  Li6  1  0.666700  0.003025  0.000200  1
  Li  Li7  1  0.916939  0.249737  0.500565  1
  Nb  Nb8  1  0.129100  0.957636  0.752550  1
  Nb  Nb9  1  0.037518  0.542464  0.247455  1
  Nb  Nb10  1  0.291192  0.455003  0.747018  1
  Nb  Nb11  1  0.211431  0.034474  0.253459  1
  Nb  Nb12  1  0.455098  0.957578  0.752554  1
  Nb  Nb13  1  0.374740  0.550992  0.247599  1
  Nb  Nb14  1  0.626932  0.465390  0.746513  1
  Nb  Nb15  1  0.539669  0.034954  0.253427  1
  Nb  Nb16  1  0.792130  0.949022  0.752359  1
  Nb  Nb17  1  0.711448  0.542244  0.247499  1
  Nb  Nb18  1  0.955227  0.465278  0.746558  1
  Nb  Nb19  1  0.875488  0.044978  0.252992  1
  O  O20  1  0.027977  0.260179  0.131805  1
  O  O21  1  0.103308  0.343121  0.629389  1
  O  O22  1  0.063401  0.156957  0.370584  1
  O  O23  1  0.138698  0.239804  0.868264  1
  O  O24  1  0.183108  0.765486  0.128760  1
  O  O25  1  0.226294  0.637748  0.364750  1
  O  O26  1  0.311886  0.717328  0.871380  1
  O  O27  1  0.272481  0.857179  0.634779  1
  O  O28  1  0.355248  0.274837  0.131981  1
  O  O29  1  0.394938  0.160210  0.370218  1
  O  O30  1  0.439778  0.343106  0.629399  1
  O  O31  1  0.484041  0.239810  0.868215  1
  O  O32  1  0.526464  0.765648  0.128715  1
  O  O33  1  0.604623  0.862224  0.635227  1
  O  O34  1  0.640267  0.734501  0.871225  1
  O  O35  1  0.561998  0.638065  0.364837  1
  O  O36  1  0.682690  0.260215  0.131715  1
  O  O37  1  0.811259  0.225144  0.867946  1
  O  O38  1  0.771688  0.339772  0.629778  1
  O  O39  1  0.726924  0.156713  0.370677  1
  O  O40  1  0.854743  0.782632  0.128644  1
  O  O41  1  0.894164  0.642865  0.365208  1
  O  O42  1  0.940457  0.862148  0.635209  1
  O  O43  1  0.983554  0.734399  0.871267  1
