# generated using pymatgen
data_Li7BiO6
_symmetry_space_group_name_H-M   'P 1'
_cell_length_a   5.71299481
_cell_length_b   5.71221475
_cell_length_c   6.08312238
_cell_angle_alpha   61.99728414
_cell_angle_beta   118.00884229
_cell_angle_gamma   120.00285252
_symmetry_Int_Tables_number   1
_chemical_formula_structural   Li7BiO6
_chemical_formula_sum   'Li7 Bi1 O6'
_cell_volume   144.45190182
_cell_formula_units_Z   1
loop_
 _symmetry_equiv_pos_site_id
 _symmetry_equiv_pos_as_xyz
  1  'x, y, z'
loop_
 _atom_site_type_symbol
 _atom_site_label
 _atom_site_symmetry_multiplicity
 _atom_site_fract_x
 _atom_site_fract_y
 _atom_site_fract_z
 _atom_site_occupancy
  Li  Li1  1  0.878504  0.731093  0.649362  1
  Li  Li2  1  0.508910  0.933647  0.347263  1
  Li  Li3  1  0.771929  0.491153  0.347232  1
  Li  Li4  1  0.349495  0.650388  0.048707  1
  Li  Li5  1  0.502013  0.121416  0.649495  1
  Li  Li6  1  0.268835  0.498022  0.649357  1
  Li  Li7  1  0.066376  0.228076  0.347270  1
  Bi  Bi8  1  0.997819  0.002175  0.993384  1
  O  O9  1  0.758338  0.876768  0.248474  1
  O  O10  1  0.611380  0.797432  0.737386  1
  O  O11  1  0.923665  0.388716  0.737384  1
  O  O12  1  0.123295  0.633101  0.248595  1
  O  O13  1  0.366909  0.241643  0.248639  1
  O  O14  1  0.202533  0.076368  0.737450  1
