# generated using pymatgen
data_LiNb2O4
_symmetry_space_group_name_H-M   'P 1'
_cell_length_a   2.97299874
_cell_length_b   5.16517638
_cell_length_c   11.90660049
_cell_angle_alpha   64.27821247
_cell_angle_beta   89.99558620
_cell_angle_gamma   89.98994275
_symmetry_Int_Tables_number   1
_chemical_formula_structural   LiNb2O4
_chemical_formula_sum   'Li2 Nb4 O8'
_cell_volume   164.72141084
_cell_formula_units_Z   2
loop_
 _symmetry_equiv_pos_site_id
 _symmetry_equiv_pos_as_xyz
  1  'x, y, z'
loop_
 _atom_site_type_symbol
 _atom_site_label
 _atom_site_symmetry_multiplicity
 _atom_site_fract_x
 _atom_site_fract_y
 _atom_site_fract_z
 _atom_site_occupancy
  Li  Li1  1  0.999988  0.502996  0.497069  1
  Li  Li2  1  0.499960  0.500552  0.999571  1
  Nb  Nb3  1  0.000237  0.409578  0.254027  1
  Nb  Nb4  1  0.999675  0.596379  0.740285  1
  Nb  Nb5  1  0.499694  0.083964  0.752542  1
  Nb  Nb6  1  0.500228  0.921772  0.241759  1
  O  O7  1  0.000083  0.788464  0.866882  1
  O  O8  1  0.999842  0.217592  0.127189  1
  O  O9  1  0.000096  0.047039  0.634885  1
  O  O10  1  0.999800  0.958841  0.359303  1
  O  O11  1  0.499815  0.681950  0.136270  1
  O  O12  1  0.500122  0.323980  0.857807  1
  O  O13  1  0.499842  0.476262  0.368411  1
  O  O14  1  0.500079  0.529639  0.625775  1
