# generated using pymatgen
data_Li3Nb6O11
_symmetry_space_group_name_H-M   'P 1'
_cell_length_a   6.04052489
_cell_length_b   6.07557799
_cell_length_c   7.56240624
_cell_angle_alpha   90.08937841
_cell_angle_beta   90.00000000
_cell_angle_gamma   119.80932897
_symmetry_Int_Tables_number   1
_chemical_formula_structural   Li3Nb6O11
_chemical_formula_sum   'Li3 Nb6 O11'
_cell_volume   240.81494235
_cell_formula_units_Z   1
loop_
 _symmetry_equiv_pos_site_id
 _symmetry_equiv_pos_as_xyz
  1  'x, y, z'
loop_
 _atom_site_type_symbol
 _atom_site_label
 _atom_site_symmetry_multiplicity
 _atom_site_fract_x
 _atom_site_fract_y
 _atom_site_fract_z
 _atom_site_occupancy
  Li  Li1  1  0.000032  0.000000  0.500000  1
  Li  Li2  1  0.333177  0.666337  0.578367  1
  Li  Li3  1  0.666840  0.333663  0.421633  1
  Nb  Nb4  1  0.159973  0.841711  0.164119  1
  Nb  Nb5  1  0.158118  0.316141  0.163421  1
  Nb  Nb6  1  0.318261  0.158289  0.835881  1
  Nb  Nb7  1  0.681660  0.841638  0.164192  1
  Nb  Nb8  1  0.841977  0.683859  0.836579  1
  Nb  Nb9  1  0.840022  0.158362  0.835808  1
  O  O10  1  0.159998  0.841307  0.685065  1
  O  O11  1  0.999968  0.499978  0.000009  1
  O  O12  1  0.332029  0.664051  0.316373  1
  O  O13  1  0.158163  0.316364  0.685734  1
  O  O14  1  0.318689  0.158693  0.314935  1
  O  O15  1  0.499989  0.500022  0.999991  1
  O  O16  1  0.681316  0.841319  0.685125  1
  O  O17  1  0.667979  0.335949  0.683627  1
  O  O18  1  0.500014  0.000000  0.000000  1
  O  O19  1  0.841798  0.683636  0.314266  1
  O  O20  1  0.839998  0.158681  0.314875  1
