# generated using pymatgen
data_LiNbO3
_symmetry_space_group_name_H-M   'P 1'
_cell_length_a   5.67802006
_cell_length_b   5.69027270
_cell_length_c   74.13907331
_cell_angle_alpha   54.70414115
_cell_angle_beta   54.77100111
_cell_angle_gamma   54.68420879
_symmetry_Int_Tables_number   1
_chemical_formula_structural   LiNbO3
_chemical_formula_sum   'Li26 Nb26 O78'
_cell_volume   1485.47115392
_cell_formula_units_Z   26
loop_
 _symmetry_equiv_pos_site_id
 _symmetry_equiv_pos_as_xyz
  1  'x, y, z'
loop_
 _atom_site_type_symbol
 _atom_site_label
 _atom_site_symmetry_multiplicity
 _atom_site_fract_x
 _atom_site_fract_y
 _atom_site_fract_z
 _atom_site_occupancy
  Li  Li1  1  0.198555  0.230442  0.096732  1
  Li  Li2  1  0.670257  0.655128  0.054310  1
  Li  Li3  1  0.811388  0.836674  0.064533  1
  Li  Li4  1  0.786399  0.769814  0.141804  1
  Li  Li5  1  0.796119  0.796962  0.216067  1
  Li  Li6  1  0.796826  0.792913  0.291785  1
  Li  Li7  1  0.793167  0.796594  0.368965  1
  Li  Li8  1  0.801981  0.807477  0.444495  1
  Li  Li9  1  0.299822  0.313782  0.557252  1
  Li  Li10  1  0.810040  0.799211  0.519961  1
  Li  Li11  1  0.274293  0.294074  0.636053  1
  Li  Li12  1  0.807947  0.794181  0.596581  1
  Li  Li13  1  0.277610  0.283946  0.713920  1
  Li  Li14  1  0.670805  0.683300  0.667341  1
  Li  Li15  1  0.837540  0.829050  0.678469  1
  Li  Li16  1  0.279899  0.282594  0.790996  1
  Li  Li17  1  0.678761  0.678061  0.744480  1
  Li  Li18  1  0.832635  0.830566  0.755747  1
  Li  Li19  1  0.277590  0.282106  0.868373  1
  Li  Li20  1  0.676948  0.676788  0.821723  1
  Li  Li21  1  0.828880  0.830098  0.833037  1
  Li  Li22  1  0.277337  0.281640  0.945505  1
  Li  Li23  1  0.680472  0.673322  0.898507  1
  Li  Li24  1  0.826732  0.831696  0.910081  1
  Li  Li25  1  0.682233  0.670785  0.975591  1
  Li  Li26  1  0.824364  0.834451  0.987026  1
  Nb  Nb27  1  0.008618  0.981774  0.004024  1
  Nb  Nb28  1  0.007541  0.977308  0.081094  1
  Nb  Nb29  1  0.458466  0.510197  0.040483  1
  Nb  Nb30  1  0.002970  0.974354  0.158611  1
  Nb  Nb31  1  0.465078  0.498239  0.120393  1
  Nb  Nb32  1  0.018972  0.014992  0.232244  1
  Nb  Nb33  1  0.490935  0.514370  0.195150  1
  Nb  Nb34  1  0.019470  0.022110  0.309185  1
  Nb  Nb35  1  0.521181  0.503922  0.269462  1
  Nb  Nb36  1  0.013654  0.016955  0.386339  1
  Nb  Nb37  1  0.497063  0.510396  0.347480  1
  Nb  Nb38  1  0.002438  0.042826  0.459698  1
  Nb  Nb39  1  0.520243  0.521620  0.422655  1
  Nb  Nb40  1  0.010674  0.045634  0.534043  1
  Nb  Nb41  1  0.538659  0.510333  0.496030  1
  Nb  Nb42  1  0.998724  0.040112  0.612116  1
  Nb  Nb43  1  0.543557  0.500610  0.573584  1
  Nb  Nb44  1  0.007372  0.031202  0.691958  1
  Nb  Nb45  1  0.522554  0.490650  0.651385  1
  Nb  Nb46  1  0.011109  0.013153  0.770079  1
  Nb  Nb47  1  0.508324  0.499015  0.730117  1
  Nb  Nb48  1  0.009534  0.010285  0.847059  1
  Nb  Nb49  1  0.500334  0.500525  0.807631  1
  Nb  Nb50  1  0.016562  0.999221  0.924686  1
  Nb  Nb51  1  0.497189  0.499106  0.884775  1
  Nb  Nb52  1  0.480430  0.498573  0.963363  1
  O  O53  1  0.098559  0.417412  0.056295  1
  O  O54  1  0.415874  0.751197  0.006511  1
  O  O55  1  0.768464  0.103957  0.029920  1
  O  O56  1  0.261978  0.855803  0.048201  1
  O  O57  1  0.642227  0.258386  0.064528  1
  O  O58  1  0.128252  0.385591  0.133388  1
  O  O59  1  0.866762  0.668444  0.017423  1
  O  O60  1  0.407005  0.777049  0.082535  1
  O  O61  1  0.779104  0.134966  0.104616  1
  O  O62  1  0.251297  0.880005  0.123868  1
  O  O63  1  0.651574  0.253728  0.141837  1
  O  O64  1  0.125259  0.383322  0.211340  1
  O  O65  1  0.887483  0.647455  0.093764  1
  O  O66  1  0.382100  0.747785  0.162836  1
  O  O67  1  0.760017  0.116048  0.183037  1
  O  O68  1  0.238111  0.850240  0.204714  1
  O  O69  1  0.661942  0.249639  0.218257  1
  O  O70  1  0.123241  0.382325  0.288180  1
  O  O71  1  0.857970  0.660023  0.170356  1
  O  O72  1  0.379703  0.749226  0.240100  1
  O  O73  1  0.754210  0.123502  0.259847  1
  O  O74  1  0.233854  0.826227  0.283266  1
  O  O75  1  0.669928  0.238411  0.294948  1
  O  O76  1  0.121150  0.380373  0.365578  1
  O  O77  1  0.832152  0.676963  0.248975  1
  O  O78  1  0.384006  0.746375  0.317041  1
  O  O79  1  0.752395  0.121303  0.337025  1
  O  O80  1  0.242056  0.833659  0.359427  1
  O  O81  1  0.678759  0.242985  0.371108  1
  O  O82  1  0.115914  0.384643  0.442565  1
  O  O83  1  0.829408  0.683124  0.325438  1
  O  O84  1  0.378223  0.750484  0.394605  1
  O  O85  1  0.751262  0.127702  0.413939  1
  O  O86  1  0.244826  0.836975  0.436597  1
  O  O87  1  0.658581  0.233047  0.450144  1
  O  O88  1  0.117480  0.382902  0.520217  1
  O  O89  1  0.843460  0.666635  0.403065  1
  O  O90  1  0.384517  0.753624  0.471459  1
  O  O91  1  0.758207  0.122045  0.490886  1
  O  O92  1  0.242343  0.846345  0.513047  1
  O  O93  1  0.633460  0.226587  0.529812  1
  O  O94  1  0.108169  0.375632  0.598465  1
  O  O95  1  0.851762  0.644730  0.481712  1
  O  O96  1  0.372196  0.740764  0.550232  1
  O  O97  1  0.729346  0.126936  0.568866  1
  O  O98  1  0.232611  0.874815  0.588686  1
  O  O99  1  0.616834  0.230289  0.608093  1
  O  O100  1  0.092235  0.403111  0.674716  1
  O  O101  1  0.877631  0.611591  0.559628  1
  O  O102  1  0.370960  0.725672  0.626914  1
  O  O103  1  0.726230  0.097140  0.648501  1
  O  O104  1  0.244822  0.864344  0.666516  1
  O  O105  1  0.635911  0.241869  0.684003  1
  O  O106  1  0.104916  0.397713  0.750041  1
  O  O107  1  0.860256  0.613208  0.637121  1
  O  O108  1  0.393388  0.736519  0.701682  1
  O  O109  1  0.743774  0.094875  0.723995  1
  O  O110  1  0.251107  0.860370  0.742069  1
  O  O111  1  0.637885  0.250908  0.759234  1
  O  O112  1  0.113059  0.394956  0.826587  1
  O  O113  1  0.863019  0.627105  0.712710  1
  O  O114  1  0.397690  0.742108  0.777809  1
  O  O115  1  0.748550  0.103737  0.799980  1
  O  O116  1  0.252510  0.865138  0.818728  1
  O  O117  1  0.642182  0.254102  0.835781  1
  O  O118  1  0.108559  0.398976  0.902866  1
  O  O119  1  0.866363  0.639998  0.788843  1
  O  O120  1  0.406128  0.740823  0.854382  1
  O  O121  1  0.749042  0.110013  0.876658  1
  O  O122  1  0.253230  0.868737  0.895176  1
  O  O123  1  0.641685  0.256675  0.912327  1
  O  O124  1  0.111327  0.405085  0.979028  1
  O  O125  1  0.865669  0.642184  0.865588  1
  O  O126  1  0.411074  0.744185  0.930480  1
  O  O127  1  0.750854  0.109091  0.952793  1
  O  O128  1  0.265246  0.865727  0.970646  1
  O  O129  1  0.668889  0.259111  0.986310  1
  O  O130  1  0.877729  0.648315  0.941178  1
