# generated using pymatgen
data_Li(Bi3O5)4
_symmetry_space_group_name_H-M   'P 1'
_cell_length_a   8.80141134
_cell_length_b   8.80141134
_cell_length_c   8.80141134
_cell_angle_alpha   109.46843294
_cell_angle_beta   109.47333596
_cell_angle_gamma   109.47189304
_symmetry_Int_Tables_number   1
_chemical_formula_structural   Li(Bi3O5)4
_chemical_formula_sum   'Li1 Bi12 O20'
_cell_volume   524.84983433
_cell_formula_units_Z   1
loop_
 _symmetry_equiv_pos_site_id
 _symmetry_equiv_pos_as_xyz
  1  'x, y, z'
loop_
 _atom_site_type_symbol
 _atom_site_label
 _atom_site_symmetry_multiplicity
 _atom_site_fract_x
 _atom_site_fract_y
 _atom_site_fract_z
 _atom_site_occupancy
  Li  Li1  1  0.000000  0.000000  0.000000  1
  Bi  Bi2  1  0.822135  0.139257  0.308860  1
  Bi  Bi3  1  0.860747  0.682885  0.169601  1
  Bi  Bi4  1  0.486716  0.317115  0.177862  1
  Bi  Bi5  1  0.317106  0.177867  0.486710  1
  Bi  Bi6  1  0.682894  0.169604  0.860761  1
  Bi  Bi7  1  0.830397  0.513275  0.691140  1
  Bi  Bi8  1  0.177865  0.486725  0.317123  1
  Bi  Bi9  1  0.691157  0.830396  0.513290  1
  Bi  Bi10  1  0.308843  0.822133  0.139239  1
  Bi  Bi11  1  0.139253  0.308854  0.822138  1
  Bi  Bi12  1  0.513284  0.691146  0.830399  1
  Bi  Bi13  1  0.169603  0.860743  0.682877  1
  O  O14  1  0.622057  0.000000  0.000004  1
  O  O15  1  0.758178  0.380346  0.118850  1
  O  O16  1  0.238524  0.999993  0.000005  1
  O  O17  1  0.622157  0.241819  0.360662  1
  O  O18  1  0.881155  0.261495  0.639338  1
  O  O19  1  0.999988  0.238519  0.999995  1
  O  O20  1  0.000012  0.000007  0.238531  1
  O  O21  1  0.738505  0.619654  0.377832  1
  O  O22  1  0.377943  0.377947  0.377943  1
  O  O23  1  0.360667  0.622173  0.241839  1
  O  O24  1  0.639333  0.881172  0.261506  1
  O  O25  1  0.380334  0.118828  0.758161  1
  O  O26  1  0.619666  0.377827  0.738494  1
  O  O27  1  -0.000004  0.622053  0.999996  1
  O  O28  1  0.000004  -0.000000  0.622057  1
  O  O29  1  0.241822  0.360672  0.622168  1
  O  O30  1  0.761476  0.761481  0.761469  1
  O  O31  1  0.377843  0.738505  0.619661  1
  O  O32  1  0.118845  0.758181  0.380339  1
  O  O33  1  0.261495  0.639328  0.881150  1
