# generated using pymatgen
data_Li2Nb4O11
_symmetry_space_group_name_H-M   'P 1'
_cell_length_a   8.42451990
_cell_length_b   8.42451990
_cell_length_c   9.93105325
_cell_angle_alpha   52.32575048
_cell_angle_beta   127.67424952
_cell_angle_gamma   153.98278938
_symmetry_Int_Tables_number   1
_chemical_formula_structural   Li2Nb4O11
_chemical_formula_sum   'Li2 Nb4 O11'
_cell_volume   240.78098732
_cell_formula_units_Z   1
loop_
 _symmetry_equiv_pos_site_id
 _symmetry_equiv_pos_as_xyz
  1  'x, y, z'
loop_
 _atom_site_type_symbol
 _atom_site_label
 _atom_site_symmetry_multiplicity
 _atom_site_fract_x
 _atom_site_fract_y
 _atom_site_fract_z
 _atom_site_occupancy
  Li  Li1  1  0.114995  0.885005  0.470687  1
  Li  Li2  1  0.885005  0.114995  0.529313  1
  Nb  Nb3  1  0.152162  0.847838  0.157980  1
  Nb  Nb4  1  0.628667  0.371333  0.835567  1
  Nb  Nb5  1  0.371333  0.628667  0.164433  1
  Nb  Nb6  1  0.847838  0.152162  0.842020  1
  O  O7  1  0.164137  0.835863  0.919506  1
  O  O8  1  0.347041  0.652959  0.912318  1
  O  O9  1  0.175964  0.824036  0.357864  1
  O  O10  1  0.316410  0.683590  0.284075  1
  O  O11  1  0.489745  0.510255  0.666200  1
  O  O12  1  0.510255  0.489745  0.333800  1
  O  O13  1  0.683590  0.316410  0.715925  1
  O  O14  1  0.000000  0.000000  0.000000  1
  O  O15  1  0.824036  0.175964  0.642136  1
  O  O16  1  0.652959  0.347041  0.087682  1
  O  O17  1  0.835863  0.164137  0.080494  1
