# generated using pymatgen
data_LiNb13O33
_symmetry_space_group_name_H-M   'P 1'
_cell_length_a   11.59430774
_cell_length_b   11.59430774
_cell_length_c   15.70028707
_cell_angle_alpha   88.24650750
_cell_angle_beta   91.75349250
_cell_angle_gamma   160.82639277
_symmetry_Int_Tables_number   1
_chemical_formula_structural   LiNb13O33
_chemical_formula_sum   'Li1 Nb13 O33'
_cell_volume   692.83998870
_cell_formula_units_Z   1
loop_
 _symmetry_equiv_pos_site_id
 _symmetry_equiv_pos_as_xyz
  1  'x, y, z'
loop_
 _atom_site_type_symbol
 _atom_site_label
 _atom_site_symmetry_multiplicity
 _atom_site_fract_x
 _atom_site_fract_y
 _atom_site_fract_z
 _atom_site_occupancy
  Li  Li1  1  0.500000  0.500000  0.500000  1
  Nb  Nb2  1  0.070562  0.929438  0.230119  1
  Nb  Nb3  1  0.086554  0.913446  0.674697  1
  Nb  Nb4  1  0.136112  0.863888  0.469624  1
  Nb  Nb5  1  0.154888  0.845112  0.903891  1
  Nb  Nb6  1  0.224175  0.775825  0.136793  1
  Nb  Nb7  1  0.291534  0.708466  0.373958  1
  Nb  Nb8  1  0.000000  0.000000  0.000000  1
  Nb  Nb9  1  0.708466  0.291534  0.626042  1
  Nb  Nb10  1  0.775825  0.224175  0.863207  1
  Nb  Nb11  1  0.845112  0.154888  0.096109  1
  Nb  Nb12  1  0.863888  0.136112  0.530376  1
  Nb  Nb13  1  0.913446  0.086554  0.325303  1
  Nb  Nb14  1  0.929438  0.070562  0.769881  1
  O  O15  1  0.011908  0.988092  0.709300  1
  O  O16  1  0.035790  0.964210  0.120650  1
  O  O17  1  0.066515  0.933485  0.543541  1
  O  O18  1  0.081668  0.918332  0.951460  1
  O  O19  1  0.100221  0.899779  0.366474  1
  O  O20  1  0.127087  0.872912  0.787330  1
  O  O21  1  0.152996  0.847004  0.194674  1
  O  O22  1  0.181289  0.818711  0.611275  1
  O  O23  1  0.193777  0.806223  0.026988  1
  O  O24  1  0.221826  0.778174  0.429797  1
  O  O25  1  0.250223  0.749777  0.863058  1
  O  O26  1  0.266802  0.733198  0.263884  1
  O  O27  1  0.320325  0.679675  0.099192  1
  O  O28  1  0.347405  0.652595  0.502847  1
  O  O29  1  0.390605  0.609395  0.337273  1
  O  O30  1  0.430060  0.569940  0.750308  1
  O  O31  1  0.500000  0.500000  0.000000  1
  O  O32  1  0.569940  0.430060  0.249692  1
  O  O33  1  0.609395  0.390605  0.662727  1
  O  O34  1  0.652595  0.347405  0.497153  1
  O  O35  1  0.679675  0.320325  0.900808  1
  O  O36  1  0.733198  0.266802  0.736116  1
  O  O37  1  0.749777  0.250223  0.136942  1
  O  O38  1  0.778174  0.221826  0.570203  1
  O  O39  1  0.806223  0.193777  0.973012  1
  O  O40  1  0.818711  0.181289  0.388725  1
  O  O41  1  0.847004  0.152996  0.805326  1
  O  O42  1  0.872912  0.127087  0.212670  1
  O  O43  1  0.899779  0.100221  0.633526  1
  O  O44  1  0.918332  0.081668  0.048540  1
  O  O45  1  0.933485  0.066515  0.456459  1
  O  O46  1  0.964210  0.035790  0.879350  1
  O  O47  1  0.988092  0.011908  0.290700  1
