# generated using pymatgen
data_LiNbO3
_symmetry_space_group_name_H-M   'P 1'
_cell_length_a   5.58892315
_cell_length_b   5.58410672
_cell_length_c   33.52965366
_cell_angle_alpha   55.91354176
_cell_angle_beta   55.90128037
_cell_angle_gamma   55.93234477
_symmetry_Int_Tables_number   1
_chemical_formula_structural   LiNbO3
_chemical_formula_sum   'Li12 Nb12 O36'
_cell_volume   669.89877062
_cell_formula_units_Z   12
loop_
 _symmetry_equiv_pos_site_id
 _symmetry_equiv_pos_as_xyz
  1  'x, y, z'
loop_
 _atom_site_type_symbol
 _atom_site_label
 _atom_site_symmetry_multiplicity
 _atom_site_fract_x
 _atom_site_fract_y
 _atom_site_fract_z
 _atom_site_occupancy
  Li  Li1  1  0.217025  0.218684  0.038209  1
  Li  Li2  1  0.292461  0.292237  0.216115  1
  Li  Li3  1  0.718830  0.718911  0.119940  1
  Li  Li4  1  0.295009  0.294057  0.381866  1
  Li  Li5  1  0.794013  0.795201  0.298694  1
  Li  Li6  1  0.294661  0.293602  0.548750  1
  Li  Li7  1  0.793603  0.794694  0.465418  1
  Li  Li8  1  0.294800  0.293778  0.715377  1
  Li  Li9  1  0.793601  0.794640  0.632091  1
  Li  Li10  1  0.294193  0.294289  0.882105  1
  Li  Li11  1  0.794335  0.794906  0.798574  1
  Li  Li12  1  0.791252  0.790109  0.965427  1
  Nb  Nb13  1  0.012820  0.004319  0.002728  1
  Nb  Nb14  1  0.011708  0.007406  0.169921  1
  Nb  Nb15  1  0.495868  0.504094  0.087753  1
  Nb  Nb16  1  0.016744  0.018020  0.335882  1
  Nb  Nb17  1  0.518583  0.517130  0.252112  1
  Nb  Nb18  1  0.017416  0.018011  0.502685  1
  Nb  Nb19  1  0.517978  0.517362  0.419304  1
  Nb  Nb20  1  0.017487  0.017872  0.669353  1
  Nb  Nb21  1  0.518067  0.517164  0.586052  1
  Nb  Nb22  1  0.016834  0.017818  0.835694  1
  Nb  Nb23  1  0.518022  0.517151  0.752617  1
  Nb  Nb24  1  0.516498  0.517008  0.918558  1
  O  O25  1  0.125552  0.376428  0.124059  1
  O  O26  1  0.374825  0.761638  0.020623  1
  O  O27  1  0.757386  0.123593  0.062369  1
  O  O28  1  0.258453  0.872802  0.104394  1
  O  O29  1  0.627923  0.261803  0.145502  1
  O  O30  1  0.127523  0.375805  0.289729  1
  O  O31  1  0.869315  0.629023  0.040548  1
  O  O32  1  0.374372  0.735699  0.187802  1
  O  O33  1  0.740459  0.127258  0.229024  1
  O  O34  1  0.238859  0.875047  0.270954  1
  O  O35  1  0.627915  0.238336  0.312181  1
  O  O36  1  0.126721  0.376561  0.456482  1
  O  O37  1  0.878313  0.626641  0.207874  1
  O  O38  1  0.374854  0.738538  0.354624  1
  O  O39  1  0.737508  0.127716  0.395903  1
  O  O40  1  0.238036  0.875695  0.438005  1
  O  O41  1  0.627499  0.237475  0.479349  1
  O  O42  1  0.126538  0.376543  0.623155  1
  O  O43  1  0.876286  0.626954  0.373043  1
  O  O44  1  0.375437  0.738005  0.521372  1
  O  O45  1  0.737092  0.127393  0.562778  1
  O  O46  1  0.237879  0.875715  0.604704  1
  O  O47  1  0.627499  0.237140  0.646097  1
  O  O48  1  0.127028  0.376190  0.789721  1
  O  O49  1  0.876395  0.626537  0.539828  1
  O  O50  1  0.375657  0.738060  0.687980  1
  O  O51  1  0.737289  0.127366  0.729410  1
  O  O52  1  0.238291  0.876291  0.771068  1
  O  O53  1  0.627736  0.237150  0.812617  1
  O  O54  1  0.125602  0.371573  0.957896  1
  O  O55  1  0.876517  0.626479  0.706461  1
  O  O56  1  0.376135  0.736463  0.854244  1
  O  O57  1  0.737311  0.127334  0.895592  1
  O  O58  1  0.238474  0.878198  0.936947  1
  O  O59  1  0.624044  0.237276  0.978617  1
  O  O60  1  0.876670  0.626014  0.873022  1
