# generated using pymatgen
data_LiNb8O10
_symmetry_space_group_name_H-M   'P 1'
_cell_length_a   13.59639441
_cell_length_b   13.59639441
_cell_length_c   13.59639441
_cell_angle_alpha   153.82467100
_cell_angle_beta   153.82467100
_cell_angle_gamma   37.35449179
_symmetry_Int_Tables_number   1
_chemical_formula_structural   LiNb8O10
_chemical_formula_sum   'Li2 Nb16 O20'
_cell_volume   488.36942297
_cell_formula_units_Z   2
loop_
 _symmetry_equiv_pos_site_id
 _symmetry_equiv_pos_as_xyz
  1  'x, y, z'
loop_
 _atom_site_type_symbol
 _atom_site_label
 _atom_site_symmetry_multiplicity
 _atom_site_fract_x
 _atom_site_fract_y
 _atom_site_fract_z
 _atom_site_occupancy
  Li  Li1  1  0.626518  0.626518  0.000000  1
  Li  Li2  1  0.376518  0.876518  0.500000  1
  Nb  Nb3  1  0.926176  0.172076  0.245900  1
  Nb  Nb4  1  0.752599  0.008523  0.255925  1
  Nb  Nb5  1  0.430276  0.176176  0.254100  1
  Nb  Nb6  1  0.246674  0.002599  0.244075  1
  Nb  Nb7  1  0.756164  0.500402  0.255762  1
  Nb  Nb8  1  0.922076  0.176176  0.745900  1
  Nb  Nb9  1  0.758523  0.002599  0.755925  1
  Nb  Nb10  1  0.572683  0.326864  0.245819  1
  Nb  Nb11  1  0.250402  0.494638  0.244238  1
  Nb  Nb12  1  0.752599  0.496674  0.744075  1
  Nb  Nb13  1  0.076864  0.331046  0.254181  1
  Nb  Nb14  1  0.250402  0.006164  0.755762  1
  Nb  Nb15  1  0.926176  0.680276  0.754100  1
  Nb  Nb16  1  0.081046  0.326864  0.754181  1
  Nb  Nb17  1  0.244638  0.500402  0.744238  1
  Nb  Nb18  1  0.076864  0.822683  0.745819  1
  O  O19  1  0.838474  0.111216  0.272742  1
  O  O20  1  0.315733  0.088474  0.227258  1
  O  O21  1  0.686902  0.414607  0.272295  1
  O  O22  1  0.852075  0.584044  0.268032  1
  O  O23  1  0.861216  0.088474  0.772742  1
  O  O24  1  0.668903  0.937240  0.268338  1
  O  O25  1  0.164607  0.392312  0.227705  1
  O  O26  1  0.334044  0.566012  0.231968  1
  O  O27  1  0.838474  0.565733  0.727258  1
  O  O28  1  0.501501  0.751643  0.250142  1
  O  O29  1  0.501501  0.251357  0.749858  1
  O  O30  1  0.334044  0.102075  0.768032  1
  O  O31  1  0.668903  0.400565  0.731662  1
  O  O32  1  0.142312  0.414607  0.727705  1
  O  O33  1  0.316012  0.584044  0.731968  1
  O  O34  1  0.150565  0.918903  0.231662  1
  O  O35  1  0.687240  0.918903  0.768338  1
  O  O36  1  0.501643  0.751501  0.750142  1
  O  O37  1  0.001357  0.751501  0.249858  1
  O  O38  1  0.164607  0.936902  0.772295  1
