# generated using pymatgen
data_Li11Nb12O36
_symmetry_space_group_name_H-M   'P 1'
_cell_length_a   5.58054003
_cell_length_b   5.58084501
_cell_length_c   33.48697076
_cell_angle_alpha   56.39567371
_cell_angle_beta   56.32546482
_cell_angle_gamma   56.29851646
_symmetry_Int_Tables_number   1
_chemical_formula_structural   Li11Nb12O36
_chemical_formula_sum   'Li11 Nb12 O36'
_cell_volume   675.02183295
_cell_formula_units_Z   1
loop_
 _symmetry_equiv_pos_site_id
 _symmetry_equiv_pos_as_xyz
  1  'x, y, z'
loop_
 _atom_site_type_symbol
 _atom_site_label
 _atom_site_symmetry_multiplicity
 _atom_site_fract_x
 _atom_site_fract_y
 _atom_site_fract_z
 _atom_site_occupancy
  Li  Li1  1  0.283075  0.281111  0.046796  1
  Li  Li2  1  0.281459  0.281656  0.213599  1
  Li  Li3  1  0.730184  0.731074  0.121309  1
  Li  Li4  1  0.280300  0.282041  0.380396  1
  Li  Li5  1  0.730390  0.729544  0.288300  1
  Li  Li6  1  0.278945  0.281363  0.547116  1
  Li  Li7  1  0.731403  0.728100  0.455053  1
  Li  Li8  1  0.727691  0.729383  0.620969  1
  Li  Li9  1  0.226319  0.226286  0.870842  1
  Li  Li10  1  0.721864  0.725252  0.788875  1
  Li  Li11  1  0.728201  0.728710  0.953950  1
  Nb  Nb12  1  0.012015  0.008344  0.001070  1
  Nb  Nb13  1  0.011653  0.010039  0.168308  1
  Nb  Nb14  1  0.511443  0.507922  0.085092  1
  Nb  Nb15  1  0.011019  0.010094  0.335317  1
  Nb  Nb16  1  0.511455  0.509808  0.251969  1
  Nb  Nb17  1  0.010705  0.007834  0.502137  1
  Nb  Nb18  1  0.509510  0.509681  0.418874  1
  Nb  Nb19  1  0.003624  0.013947  0.668492  1
  Nb  Nb20  1  0.505925  0.508890  0.585870  1
  Nb  Nb21  1  0.000852  0.016317  0.833392  1
  Nb  Nb22  1  0.517227  0.509127  0.746798  1
  Nb  Nb23  1  0.497043  0.505976  0.918249  1
  O  O24  1  0.124877  0.371334  0.123102  1
  O  O25  1  0.370378  0.740854  0.020678  1
  O  O26  1  0.739705  0.126220  0.061372  1
  O  O27  1  0.254754  0.869059  0.104051  1
  O  O28  1  0.624834  0.254316  0.144818  1
  O  O29  1  0.124789  0.370085  0.289970  1
  O  O30  1  0.870918  0.625768  0.042311  1
  O  O31  1  0.371111  0.739922  0.187378  1
  O  O32  1  0.739783  0.125041  0.228392  1
  O  O33  1  0.253309  0.871341  0.270704  1
  O  O34  1  0.623894  0.254136  0.311842  1
  O  O35  1  0.126296  0.369019  0.456546  1
  O  O36  1  0.870143  0.624650  0.209004  1
  O  O37  1  0.371462  0.739611  0.354000  1
  O  O38  1  0.739683  0.124626  0.395195  1
  O  O39  1  0.252878  0.871522  0.437377  1
  O  O40  1  0.624251  0.255858  0.478468  1
  O  O41  1  0.126477  0.373441  0.623231  1
  O  O42  1  0.868758  0.625248  0.375661  1
  O  O43  1  0.373149  0.738829  0.520744  1
  O  O44  1  0.739574  0.124339  0.561911  1
  O  O45  1  0.259465  0.866147  0.605693  1
  O  O46  1  0.656552  0.253889  0.640994  1
  O  O47  1  0.123333  0.372086  0.792731  1
  O  O48  1  0.865967  0.632191  0.541149  1
  O  O49  1  0.378266  0.744916  0.687278  1
  O  O50  1  0.754609  0.119202  0.730069  1
  O  O51  1  0.253297  0.832224  0.777810  1
  O  O52  1  0.635689  0.248478  0.811003  1
  O  O53  1  0.124318  0.373780  0.958209  1
  O  O54  1  0.845954  0.655166  0.709466  1
  O  O55  1  0.369329  0.760303  0.854984  1
  O  O56  1  0.753350  0.127782  0.895577  1
  O  O57  1  0.252643  0.870128  0.937975  1
  O  O58  1  0.628211  0.259229  0.977619  1
  O  O59  1  0.867496  0.628563  0.876882  1
