# generated using pymatgen
data_LiNbO3
_symmetry_space_group_name_H-M   'P 1'
_cell_length_a   5.58377713
_cell_length_b   5.57961070
_cell_length_c   39.08870223
_cell_angle_alpha   55.85013340
_cell_angle_beta   55.83298503
_cell_angle_gamma   55.87253085
_symmetry_Int_Tables_number   1
_chemical_formula_structural   LiNbO3
_chemical_formula_sum   'Li14 Nb14 O42'
_cell_volume   778.31958848
_cell_formula_units_Z   14
loop_
 _symmetry_equiv_pos_site_id
 _symmetry_equiv_pos_as_xyz
  1  'x, y, z'
loop_
 _atom_site_type_symbol
 _atom_site_label
 _atom_site_symmetry_multiplicity
 _atom_site_fract_x
 _atom_site_fract_y
 _atom_site_fract_z
 _atom_site_occupancy
  Li  Li1  1  0.216674  0.219046  0.032979  1
  Li  Li2  1  0.292601  0.292116  0.185332  1
  Li  Li3  1  0.718398  0.718564  0.102878  1
  Li  Li4  1  0.295349  0.294483  0.327320  1
  Li  Li5  1  0.794288  0.795603  0.256041  1
  Li  Li6  1  0.294884  0.293942  0.470411  1
  Li  Li7  1  0.793931  0.794958  0.398968  1
  Li  Li8  1  0.294871  0.293920  0.613267  1
  Li  Li9  1  0.793912  0.794848  0.541851  1
  Li  Li10  1  0.295060  0.294202  0.756075  1
  Li  Li11  1  0.793962  0.794895  0.684691  1
  Li  Li12  1  0.293914  0.294550  0.899053  1
  Li  Li13  1  0.794707  0.795053  0.827395  1
  Li  Li14  1  0.791236  0.789123  0.970461  1
  Nb  Nb15  1  0.012346  0.003669  0.002397  1
  Nb  Nb16  1  0.011544  0.006733  0.145703  1
  Nb  Nb17  1  0.494530  0.503918  0.075304  1
  Nb  Nb18  1  0.016429  0.017434  0.287930  1
  Nb  Nb19  1  0.518284  0.516956  0.216138  1
  Nb  Nb20  1  0.017314  0.017758  0.430879  1
  Nb  Nb21  1  0.517526  0.517251  0.359407  1
  Nb  Nb22  1  0.017311  0.017624  0.573764  1
  Nb  Nb23  1  0.517802  0.517061  0.502347  1
  Nb  Nb24  1  0.017378  0.017579  0.716598  1
  Nb  Nb25  1  0.517779  0.517039  0.645207  1
  Nb  Nb26  1  0.016628  0.017417  0.859174  1
  Nb  Nb27  1  0.517778  0.517033  0.787952  1
  Nb  Nb28  1  0.515831  0.516710  0.930223  1
  O  O29  1  0.124624  0.375919  0.106328  1
  O  O30  1  0.375145  0.760250  0.017563  1
  O  O31  1  0.756769  0.122207  0.053542  1
  O  O32  1  0.257486  0.872971  0.089387  1
  O  O33  1  0.626830  0.260650  0.124828  1
  O  O34  1  0.125912  0.375773  0.248238  1
  O  O35  1  0.869114  0.628184  0.034634  1
  O  O36  1  0.374599  0.734273  0.160902  1
  O  O37  1  0.739072  0.125737  0.196447  1
  O  O38  1  0.237834  0.875320  0.232065  1
  O  O39  1  0.626742  0.236991  0.267630  1
  O  O40  1  0.125693  0.377058  0.391053  1
  O  O41  1  0.877848  0.624961  0.178161  1
  O  O42  1  0.375140  0.737963  0.303706  1
  O  O43  1  0.736836  0.126632  0.339283  1
  O  O44  1  0.237354  0.876250  0.375161  1
  O  O45  1  0.626303  0.236928  0.410820  1
  O  O46  1  0.125520  0.377007  0.533923  1
  O  O47  1  0.876606  0.625813  0.319557  1
  O  O48  1  0.376034  0.737323  0.446612  1
  O  O49  1  0.736516  0.126239  0.482331  1
  O  O50  1  0.237175  0.876253  0.518052  1
  O  O51  1  0.626275  0.236524  0.553757  1
  O  O52  1  0.125501  0.377003  0.676781  1
  O  O53  1  0.876888  0.625538  0.462492  1
  O  O54  1  0.376037  0.737240  0.589482  1
  O  O55  1  0.736470  0.126220  0.625200  1
  O  O56  1  0.237245  0.876318  0.660893  1
  O  O57  1  0.626386  0.236558  0.696601  1
  O  O58  1  0.126034  0.376378  0.819567  1
  O  O59  1  0.876902  0.625459  0.605354  1
  O  O60  1  0.376296  0.737370  0.732271  1
  O  O61  1  0.736749  0.126268  0.768009  1
  O  O62  1  0.237629  0.876817  0.803465  1
  O  O63  1  0.626505  0.236681  0.839309  1
  O  O64  1  0.124353  0.371627  0.963693  1
  O  O65  1  0.876883  0.625419  0.748192  1
  O  O66  1  0.376176  0.735383  0.874813  1
  O  O67  1  0.736499  0.125764  0.910489  1
  O  O68  1  0.237199  0.878250  0.945814  1
  O  O69  1  0.622568  0.236478  0.981766  1
  O  O70  1  0.876386  0.624916  0.890996  1
