# generated using pymatgen
data_LiNbO3
_symmetry_space_group_name_H-M   'P 1'
_cell_length_a   5.58868087
_cell_length_b   5.58339689
_cell_length_c   27.93286543
_cell_angle_alpha   56.04576214
_cell_angle_beta   56.04462463
_cell_angle_gamma   56.05783522
_symmetry_Int_Tables_number   1
_chemical_formula_structural   LiNbO3
_chemical_formula_sum   'Li10 Nb10 O30'
_cell_volume   559.92737985
_cell_formula_units_Z   10
loop_
 _symmetry_equiv_pos_site_id
 _symmetry_equiv_pos_as_xyz
  1  'x, y, z'
loop_
 _atom_site_type_symbol
 _atom_site_label
 _atom_site_symmetry_multiplicity
 _atom_site_fract_x
 _atom_site_fract_y
 _atom_site_fract_z
 _atom_site_occupancy
  Li  Li1  1  0.217272  0.218613  0.045558  1
  Li  Li2  1  0.289998  0.289778  0.258669  1
  Li  Li3  1  0.719164  0.719129  0.143903  1
  Li  Li4  1  0.292321  0.291416  0.457731  1
  Li  Li5  1  0.791435  0.792577  0.357865  1
  Li  Li6  1  0.292171  0.291155  0.657900  1
  Li  Li7  1  0.791038  0.792036  0.557940  1
  Li  Li8  1  0.291845  0.291577  0.857981  1
  Li  Li9  1  0.791646  0.792410  0.757753  1
  Li  Li10  1  0.788903  0.787973  0.958083  1
  Nb  Nb11  1  0.012014  0.004041  0.003192  1
  Nb  Nb12  1  0.011403  0.007505  0.203577  1
  Nb  Nb13  1  0.496517  0.504127  0.104908  1
  Nb  Nb14  1  0.016176  0.017746  0.402920  1
  Nb  Nb15  1  0.518068  0.516553  0.302300  1
  Nb  Nb16  1  0.016893  0.017883  0.603075  1
  Nb  Nb17  1  0.517834  0.516920  0.503034  1
  Nb  Nb18  1  0.016212  0.017467  0.802797  1
  Nb  Nb19  1  0.517826  0.516734  0.703025  1
  Nb  Nb20  1  0.516041  0.516255  0.902203  1
  O  O21  1  0.125059  0.373811  0.149019  1
  O  O22  1  0.372949  0.760733  0.025025  1
  O  O23  1  0.755496  0.124159  0.074767  1
  O  O24  1  0.256484  0.870780  0.125591  1
  O  O25  1  0.628067  0.259967  0.174539  1
  O  O26  1  0.128169  0.374830  0.347471  1
  O  O27  1  0.866466  0.629198  0.048857  1
  O  O28  1  0.372337  0.734140  0.225655  1
  O  O29  1  0.739206  0.127982  0.274592  1
  O  O30  1  0.238173  0.873167  0.325288  1
  O  O31  1  0.628487  0.237939  0.374232  1
  O  O32  1  0.127600  0.375266  0.547530  1
  O  O33  1  0.876326  0.626469  0.249485  1
  O  O34  1  0.373197  0.737947  0.425618  1
  O  O35  1  0.737295  0.128284  0.474636  1
  O  O36  1  0.237293  0.874100  0.525694  1
  O  O37  1  0.628216  0.237037  0.574788  1
  O  O38  1  0.127800  0.375078  0.747433  1
  O  O39  1  0.875082  0.627864  0.447421  1
  O  O40  1  0.373998  0.737336  0.625691  1
  O  O41  1  0.736928  0.128107  0.674834  1
  O  O42  1  0.237719  0.874644  0.725429  1
  O  O43  1  0.628613  0.236911  0.774680  1
  O  O44  1  0.126039  0.368215  0.949732  1
  O  O45  1  0.875142  0.627354  0.647540  1
  O  O46  1  0.374113  0.736661  0.825227  1
  O  O47  1  0.737359  0.128363  0.874208  1
  O  O48  1  0.238619  0.875950  0.924478  1
  O  O49  1  0.625172  0.236081  0.974003  1
  O  O50  1  0.874819  0.626731  0.847525  1
