# generated using pymatgen
data_Li17Nb18O54
_symmetry_space_group_name_H-M   'P 1'
_cell_length_a   16.79176206
_cell_length_b   20.47449614
_cell_length_c   9.89748953
_cell_angle_alpha   25.92447448
_cell_angle_beta   50.40967157
_cell_angle_gamma   42.65396887
_symmetry_Int_Tables_number   1
_chemical_formula_structural   Li17Nb18O54
_chemical_formula_sum   'Li17 Nb18 O54'
_cell_volume   1004.62833944
_cell_formula_units_Z   1
loop_
 _symmetry_equiv_pos_site_id
 _symmetry_equiv_pos_as_xyz
  1  'x, y, z'
loop_
 _atom_site_type_symbol
 _atom_site_label
 _atom_site_symmetry_multiplicity
 _atom_site_fract_x
 _atom_site_fract_y
 _atom_site_fract_z
 _atom_site_occupancy
  Li  Li1  1  0.427305  0.999960  0.282575  1
  Li  Li2  1  0.315490  0.333397  0.283371  1
  Li  Li3  1  0.150143  0.335580  0.777321  1
  Li  Li4  1  0.760756  1.000040  0.281896  1
  Li  Li5  1  0.204986  0.666430  0.282759  1
  Li  Li6  1  0.039317  0.666004  0.782707  1
  Li  Li7  1  0.650215  0.333809  0.280339  1
  Li  Li8  1  0.482958  0.333418  0.782339  1
  Li  Li9  1  0.538180  0.668143  0.280373  1
  Li  Li10  1  0.372890  0.664643  0.786477  1
  Li  Li11  1  0.983353  0.333061  0.282129  1
  Li  Li12  1  0.815851  0.333345  0.783289  1
  Li  Li13  1  0.260645  0.000706  0.781587  1
  Li  Li14  1  0.872589  0.665284  0.284814  1
  Li  Li15  1  0.705740  0.665955  0.781899  1
  Li  Li16  1  0.593206  1.000000  0.782655  1
  Li  Li17  1  0.926682  0.000601  0.784069  1
  Nb  Nb18  1  0.000624  -0.000317  0.001494  1
  Nb  Nb19  1  0.329737  0.999376  0.008356  1
  Nb  Nb20  1  0.166724  0.999888  0.500758  1
  Nb  Nb21  1  0.222885  0.332420  0.001421  1
  Nb  Nb22  1  0.055785  0.332655  0.501764  1
  Nb  Nb23  1  0.667095  0.000099  -0.000252  1
  Nb  Nb24  1  0.500803  0.999639  0.500895  1
  Nb  Nb25  1  0.110846  0.672994  0.989366  1
  Nb  Nb26  1  0.555225  0.333484  0.000423  1
  Nb  Nb27  1  0.388846  0.333348  0.500680  1
  Nb  Nb28  1  0.833318  0.000674  0.498953  1
  Nb  Nb29  1  0.444392  0.666954  0.000825  1
  Nb  Nb30  1  0.277563  0.666507  0.501100  1
  Nb  Nb31  1  0.893444  0.328161  0.005147  1
  Nb  Nb32  1  0.722859  0.333435  0.499738  1
  Nb  Nb33  1  0.778098  0.666896  -0.000056  1
  Nb  Nb34  1  0.610299  0.668506  0.497927  1
  Nb  Nb35  1  0.944840  0.665408  0.501492  1
  O  O36  1  0.052791  0.208299  0.108392  1
  O  O37  1  0.046744  0.082131  0.613560  1
  O  O38  1  0.243577  0.129718  0.222300  1
  O  O39  1  0.155941  0.251121  0.357874  1
  O  O40  1  0.170552  0.123392  0.840340  1
  O  O41  1  0.385830  0.203041  0.110896  1
  O  O42  1  0.130853  0.462841  0.224601  1
  O  O43  1  0.382105  0.082383  0.609247  1
  O  O44  1  0.045418  0.584524  0.357105  1
  O  O45  1  0.299251  0.212316  0.722519  1
  O  O46  1  0.577462  0.129523  0.219777  1
  O  O47  1  0.052437  0.453919  0.858858  1
  O  O48  1  0.273944  0.537359  0.110143  1
  O  O49  1  0.020249  0.796503  0.222842  1
  O  O50  1  0.489745  0.250686  0.359246  1
  O  O51  1  0.267760  0.416372  0.610437  1
  O  O52  1  0.496246  0.120793  0.859371  1
  O  O53  1  0.718112  0.202793  0.110578  1
  O  O54  1  0.188455  0.546050  0.718788  1
  O  O55  1  0.465138  0.463630  0.220057  1
  O  O56  1  0.163598  0.869263  0.112253  1
  O  O57  1  0.711415  0.082083  0.612967  1
  O  O58  1  0.379469  0.582562  0.361075  1
  O  O59  1  0.159151  0.734431  0.635470  1
  O  O60  1  0.632635  0.213192  0.719947  1
  O  O61  1  0.898745  0.141784  0.211265  1
  O  O62  1  0.387243  0.452188  0.859167  1
  O  O63  1  0.607663  0.536379  0.111244  1
  O  O64  1  0.076699  0.878266  0.732539  1
  O  O65  1  0.353501  0.796740  0.222808  1
  O  O66  1  0.823971  0.250267  0.359291  1
  O  O67  1  0.602014  0.416573  0.609329  1
  O  O68  1  0.273007  0.913506  0.367685  1
  O  O69  1  0.830456  0.120254  0.859438  1
  O  O70  1  0.521421  0.546094  0.721110  1
  O  O71  1  0.799355  0.462806  0.220892  1
  O  O72  1  0.274788  0.787326  0.860678  1
  O  O73  1  0.495602  0.870217  0.109402  1
  O  O74  1  0.712502  0.583600  0.359243  1
  O  O75  1  0.490205  0.750254  0.610364  1
  O  O76  1  0.965493  0.213031  0.721236  1
  O  O77  1  0.716899  0.458088  0.854955  1
  O  O78  1  0.941143  0.537223  0.109223  1
  O  O79  1  0.410411  0.879544  0.721434  1
  O  O80  1  0.687391  0.797764  0.218131  1
  O  O81  1  0.935247  0.414565  0.614400  1
  O  O82  1  0.601392  0.916600  0.359073  1
  O  O83  1  0.854808  0.546068  0.719329  1
  O  O84  1  0.608766  0.785763  0.860253  1
  O  O85  1  0.829721  0.870778  0.109264  1
  O  O86  1  0.823750  0.748908  0.611117  1
  O  O87  1  0.743054  0.879963  0.720285  1
  O  O88  1  0.934200  0.917039  0.360536  1
  O  O89  1  0.941313  0.788989  0.857035  1
