# generated using pymatgen
data_Li15Nb16O48
_symmetry_space_group_name_H-M   'P 1'
_cell_length_a   11.19351453
_cell_length_b   11.19351482
_cell_length_c   11.19351440
_cell_angle_alpha   55.70736597
_cell_angle_beta   55.70736495
_cell_angle_gamma   55.70736570
_symmetry_Int_Tables_number   1
_chemical_formula_structural   Li15Nb16O48
_chemical_formula_sum   'Li15 Nb16 O48'
_cell_volume   892.95747203
_cell_formula_units_Z   1
loop_
 _symmetry_equiv_pos_site_id
 _symmetry_equiv_pos_as_xyz
  1  'x, y, z'
loop_
 _atom_site_type_symbol
 _atom_site_label
 _atom_site_symmetry_multiplicity
 _atom_site_fract_x
 _atom_site_fract_y
 _atom_site_fract_z
 _atom_site_occupancy
  Li  Li1  1  0.140708  0.140435  0.639833  1
  Li  Li2  1  0.140435  0.639833  0.140708  1
  Li  Li3  1  0.639833  0.140708  0.140435  1
  Li  Li4  1  0.390495  0.390495  0.390495  1
  Li  Li5  1  0.139288  0.641422  0.641000  1
  Li  Li6  1  0.641422  0.641000  0.139288  1
  Li  Li7  1  0.641000  0.139288  0.641422  1
  Li  Li8  1  0.391001  0.889232  0.392334  1
  Li  Li9  1  0.392334  0.391001  0.889232  1
  Li  Li10  1  0.889232  0.392334  0.391001  1
  Li  Li11  1  0.640294  0.640294  0.640294  1
  Li  Li12  1  0.390766  0.890885  0.889954  1
  Li  Li13  1  0.890885  0.889954  0.390766  1
  Li  Li14  1  0.889954  0.390766  0.890885  1
  Li  Li15  1  0.889564  0.889564  0.889564  1
  Nb  Nb16  1  -0.000014  -0.000014  -0.000014  1
  Nb  Nb17  1  0.001906  0.003186  0.494432  1
  Nb  Nb18  1  0.003186  0.494432  0.001906  1
  Nb  Nb19  1  0.494432  0.001906  0.003186  1
  Nb  Nb20  1  0.249147  0.249147  0.249147  1
  Nb  Nb21  1  0.499025  0.000260  0.499252  1
  Nb  Nb22  1  0.499252  0.499025  0.000260  1
  Nb  Nb23  1  0.249601  0.249002  0.750114  1
  Nb  Nb24  1  0.249002  0.750114  0.249601  1
  Nb  Nb25  1  0.750114  0.249601  0.249002  1
  Nb  Nb26  1  0.499450  0.499450  0.499450  1
  Nb  Nb27  1  0.248126  0.749970  0.749962  1
  Nb  Nb28  1  0.749962  0.248126  0.749970  1
  Nb  Nb29  1  0.749970  0.749962  0.248126  1
  Nb  Nb30  1  0.000260  0.499252  0.499025  1
  Nb  Nb31  1  0.749734  0.749734  0.749734  1
  O  O32  1  0.053133  0.182782  0.365701  1
  O  O33  1  0.182782  0.365701  0.053133  1
  O  O34  1  0.365701  0.053133  0.182782  1
  O  O35  1  0.110209  0.429034  0.305275  1
  O  O36  1  0.305275  0.110209  0.429034  1
  O  O37  1  0.054647  0.678592  0.358580  1
  O  O38  1  0.054738  0.179489  0.859536  1
  O  O39  1  0.429034  0.305275  0.110209  1
  O  O40  1  0.179463  0.359760  0.554130  1
  O  O41  1  0.179489  0.859536  0.054738  1
  O  O42  1  0.358580  0.054647  0.678592  1
  O  O43  1  0.359760  0.554130  0.179463  1
  O  O44  1  0.110374  0.428306  0.805817  1
  O  O45  1  0.105388  0.919395  0.316425  1
  O  O46  1  0.554130  0.179463  0.359760  1
  O  O47  1  0.305654  0.608543  0.428740  1
  O  O48  1  0.316425  0.105388  0.919395  1
  O  O49  1  0.678592  0.358580  0.054647  1
  O  O50  1  0.054720  0.678139  0.859419  1
  O  O51  1  0.428306  0.805817  0.110374  1
  O  O52  1  0.428740  0.305654  0.608543  1
  O  O53  1  0.178992  0.860542  0.554336  1
  O  O54  1  0.859536  0.054738  0.179489  1
  O  O55  1  0.608543  0.428740  0.305654  1
  O  O56  1  0.359706  0.554647  0.678921  1
  O  O57  1  0.109356  0.929341  0.805156  1
  O  O58  1  0.805817  0.110374  0.428306  1
  O  O59  1  0.554336  0.178992  0.860542  1
  O  O60  1  0.554647  0.678921  0.359706  1
  O  O61  1  0.919395  0.316425  0.105388  1
  O  O62  1  0.304845  0.610370  0.928584  1
  O  O63  1  0.678921  0.359706  0.554647  1
  O  O64  1  0.678139  0.859419  0.054720  1
  O  O65  1  0.428161  0.804751  0.609562  1
  O  O66  1  0.859419  0.054720  0.678139  1
  O  O67  1  0.860542  0.554336  0.178992  1
  O  O68  1  0.609562  0.428161  0.804751  1
  O  O69  1  0.610370  0.928584  0.304845  1
  O  O70  1  0.804751  0.609562  0.428161  1
  O  O71  1  0.805156  0.109356  0.929341  1
  O  O72  1  0.554216  0.678916  0.859658  1
  O  O73  1  0.929341  0.805156  0.109356  1
  O  O74  1  0.928584  0.304845  0.610370  1
  O  O75  1  0.678916  0.859658  0.554216  1
  O  O76  1  0.859658  0.554216  0.678916  1
  O  O77  1  0.611874  0.928739  0.804022  1
  O  O78  1  0.804022  0.611874  0.928739  1
  O  O79  1  0.928739  0.804022  0.611874  1
