# generated using pymatgen
data_Li7Nb8O24
_symmetry_space_group_name_H-M   'P 1'
_cell_length_a   22.42365962
_cell_length_b   15.09467778
_cell_length_c   9.90812002
_cell_angle_alpha   26.75721763
_cell_angle_beta   50.44814041
_cell_angle_gamma   37.85973913
_symmetry_Int_Tables_number   1
_chemical_formula_structural   Li7Nb8O24
_chemical_formula_sum   'Li14 Nb16 O48'
_cell_volume   897.97894457
_cell_formula_units_Z   2
loop_
 _symmetry_equiv_pos_site_id
 _symmetry_equiv_pos_as_xyz
  1  'x, y, z'
loop_
 _atom_site_type_symbol
 _atom_site_label
 _atom_site_symmetry_multiplicity
 _atom_site_fract_x
 _atom_site_fract_y
 _atom_site_fract_z
 _atom_site_occupancy
  Li  Li1  1  0.069226  1.002884  0.285388  1
  Li  Li2  1  0.321249  0.000166  0.280092  1
  Li  Li3  1  0.194384  0.506501  0.277453  1
  Li  Li4  1  0.069983  0.499684  0.782506  1
  Li  Li5  1  0.571213  -0.000927  0.281241  1
  Li  Li6  1  0.444710  0.000997  0.783781  1
  Li  Li7  1  0.447261  0.495675  0.286988  1
  Li  Li8  1  0.321849  0.495037  0.786100  1
  Li  Li9  1  0.821500  0.993590  0.288349  1
  Li  Li10  1  0.696906  0.002070  0.778614  1
  Li  Li11  1  0.568392  0.504619  0.782809  1
  Li  Li12  1  0.947444  0.993619  0.790586  1
  Li  Li13  1  0.945303  0.501789  0.280420  1
  Li  Li14  1  0.820191  0.505296  0.774861  1
  Nb  Nb15  1  -0.001051  1.000479  -0.000038  1
  Nb  Nb16  1  0.249836  0.998774  1.002884  1
  Nb  Nb17  1  0.125256  0.001535  0.498937  1
  Nb  Nb18  1  0.124804  0.503324  -0.005734  1
  Nb  Nb19  1  0.504960  0.990041  0.005614  1
  Nb  Nb20  1  0.371671  0.001100  0.506988  1
  Nb  Nb21  1  0.375535  0.496944  0.001303  1
  Nb  Nb22  1  0.249022  0.511262  0.486693  1
  Nb  Nb23  1  0.747883  0.012902  0.986113  1
  Nb  Nb24  1  0.625860  1.000561  0.495372  1
  Nb  Nb25  1  0.625052  0.501751  -0.000941  1
  Nb  Nb26  1  0.498431  0.499154  0.500486  1
  Nb  Nb27  1  0.875391  -0.001002  0.498602  1
  Nb  Nb28  1  0.873008  0.497802  0.008481  1
  Nb  Nb29  1  0.749897  0.499313  0.502540  1
  Nb  Nb30  1  0.004752  0.488941  0.507749  1
  O  O31  1  0.012935  0.304241  0.112442  1
  O  O32  1  0.024517  0.122535  0.613717  1
  O  O33  1  0.165917  0.196412  0.219179  1
  O  O34  1  0.074962  0.406368  0.329217  1
  O  O35  1  0.107580  0.181232  0.867015  1
  O  O36  1  0.262551  0.303886  0.115731  1
  O  O37  1  0.041125  0.694045  0.219288  1
  O  O38  1  0.275569  0.131385  0.606148  1
  O  O39  1  0.200666  0.310241  0.735102  1
  O  O40  1  0.415593  0.194106  0.221009  1
  O  O41  1  0.136896  0.783240  0.141784  1
  O  O42  1  0.336293  0.380929  0.353825  1
  O  O43  1  0.148671  0.630345  0.604192  1
  O  O44  1  0.355208  0.189633  0.852268  1
  O  O45  1  0.514383  0.300459  0.113109  1
  O  O46  1  0.073707  0.821328  0.715600  1
  O  O47  1  0.294352  0.689852  0.228555  1
  O  O48  1  0.526941  0.118196  0.614349  1
  O  O49  1  0.212463  0.873886  0.362936  1
  O  O50  1  0.448174  0.318787  0.717105  1
  O  O51  1  0.663940  0.200803  0.215778  1
  O  O52  1  0.231972  0.682641  0.859230  1
  O  O53  1  0.388958  0.802180  0.111687  1
  O  O54  1  0.586273  0.375627  0.359440  1
  O  O55  1  0.397619  0.618261  0.616844  1
  O  O56  1  0.607118  0.186157  0.851625  1
  O  O57  1  0.763321  0.305266  0.112206  1
  O  O58  1  0.333753  0.810127  0.707832  1
  O  O59  1  0.527856  0.717434  0.209734  1
  O  O60  1  0.778887  0.093084  0.644303  1
  O  O61  1  0.464120  0.878047  0.353520  1
  O  O62  1  0.696010  0.320219  0.731123  1
  O  O63  1  0.915090  0.193663  0.226362  1
  O  O64  1  0.481671  0.683013  0.858815  1
  O  O65  1  0.639349  0.812361  0.107496  1
  O  O66  1  0.840082  0.372424  0.365432  1
  O  O67  1  0.649336  0.623515  0.614256  1
  O  O68  1  0.857556  0.178418  0.863763  1
  O  O69  1  0.572443  0.819161  0.723079  1
  O  O70  1  0.792194  0.687176  0.236090  1
  O  O71  1  0.708340  0.879905  0.353235  1
  O  O72  1  0.950272  0.314033  0.725883  1
  O  O73  1  0.739228  0.686279  0.831482  1
  O  O74  1  0.885185  0.812180  0.111109  1
  O  O75  1  0.902755  0.619201  0.611241  1
  O  O76  1  0.822584  0.817879  0.720224  1
  O  O77  1  0.958777  0.877536  0.358878  1
  O  O78  1  0.984589  0.678420  0.853329  1
