# generated using pymatgen
data_Li5Nb6O18
_symmetry_space_group_name_H-M   'P 1'
_cell_length_a   11.21764728
_cell_length_b   16.81108255
_cell_length_c   14.15895133
_cell_angle_alpha   32.67592361
_cell_angle_beta   32.72349865
_cell_angle_gamma   55.81731438
_symmetry_Int_Tables_number   1
_chemical_formula_structural   Li5Nb6O18
_chemical_formula_sum   'Li10 Nb12 O36'
_cell_volume   674.28631441
_cell_formula_units_Z   2
loop_
 _symmetry_equiv_pos_site_id
 _symmetry_equiv_pos_as_xyz
  1  'x, y, z'
loop_
 _atom_site_type_symbol
 _atom_site_label
 _atom_site_symmetry_multiplicity
 _atom_site_fract_x
 _atom_site_fract_y
 _atom_site_fract_z
 _atom_site_occupancy
  Li  Li1  1  0.493816  0.998200  0.302654  1
  Li  Li2  1  0.505881  0.337823  0.288534  1
  Li  Li3  1  0.996624  0.330503  0.798844  1
  Li  Li4  1  0.496997  0.001517  0.797541  1
  Li  Li5  1  0.499779  0.669638  0.292914  1
  Li  Li6  1  0.002563  0.662985  0.797842  1
  Li  Li7  1  0.004287  0.333738  0.291235  1
  Li  Li8  1  0.505434  0.337622  0.789964  1
  Li  Li9  1  0.001410  0.662371  0.299202  1
  Li  Li10  1  0.500249  0.665909  0.796530  1
  Nb  Nb11  1  -0.000495  0.001332  0.015235  1
  Nb  Nb12  1  -0.001705  0.322481  0.025100  1
  Nb  Nb13  1  0.482398  1.000710  0.024350  1
  Nb  Nb14  1  0.997607  -0.000727  0.518928  1
  Nb  Nb15  1  0.500064  0.333839  0.010651  1
  Nb  Nb16  1  0.997556  0.325232  0.525320  1
  Nb  Nb17  1  0.480420  0.997852  0.528325  1
  Nb  Nb18  1  0.509470  0.673043  0.003197  1
  Nb  Nb19  1  0.000432  0.667424  0.510321  1
  Nb  Nb20  1  0.501838  0.335154  0.510930  1
  Nb  Nb21  1  0.998989  0.664707  0.016114  1
  Nb  Nb22  1  0.511168  0.673616  0.499785  1
  O  O23  1  0.126886  0.205091  0.126639  1
  O  O24  1  0.319839  0.129842  0.236002  1
  O  O25  1  0.120525  0.537175  0.128664  1
  O  O26  1  0.190050  0.271622  0.343790  1
  O  O27  1  0.616674  0.203369  0.129311  1
  O  O28  1  0.309687  0.458622  0.248984  1
  O  O29  1  0.127190  0.871729  0.122356  1
  O  O30  1  0.308551  0.085925  0.624372  1
  O  O31  1  0.182924  0.582751  0.372267  1
  O  O32  1  0.200617  0.214906  0.731012  1
  O  O33  1  0.813301  0.147514  0.215634  1
  O  O34  1  0.627029  0.538330  0.122068  1
  O  O35  1  0.315085  0.799458  0.233300  1
  O  O36  1  0.685127  0.251416  0.369163  1
  O  O37  1  0.311251  0.416110  0.623330  1
  O  O38  1  0.178554  0.913683  0.383053  1
  O  O39  1  0.400160  0.125636  0.850081  1
  O  O40  1  0.190364  0.540909  0.743290  1
  O  O41  1  0.824693  0.466164  0.227816  1
  O  O42  1  0.587842  0.850747  0.162875  1
  O  O43  1  0.810439  0.081764  0.626950  1
  O  O44  1  0.685623  0.586424  0.368289  1
  O  O45  1  0.308071  0.748915  0.623085  1
  O  O46  1  0.689977  0.206911  0.746483  1
  O  O47  1  0.378254  0.454948  0.866649  1
  O  O48  1  0.214575  0.876681  0.722395  1
  O  O49  1  0.817321  0.793439  0.245238  1
  O  O50  1  0.803829  0.415217  0.624177  1
  O  O51  1  0.689618  0.919534  0.370163  1
  O  O52  1  0.868685  0.120487  0.885241  1
  O  O53  1  0.704125  0.548162  0.723167  1
  O  O54  1  0.380649  0.792242  0.867876  1
  O  O55  1  0.781351  0.728169  0.659211  1
  O  O56  1  0.882528  0.457060  0.866448  1
  O  O57  1  0.687405  0.877598  0.748772  1
  O  O58  1  0.876419  0.786482  0.875133  1
