# generated using pymatgen
data_Li8Nb2O9
_symmetry_space_group_name_H-M   'P 1'
_cell_length_a   5.93666503
_cell_length_b   8.92077776
_cell_length_c   15.37796797
_cell_angle_alpha   85.64219223
_cell_angle_beta   79.15486877
_cell_angle_gamma   70.43151900
_symmetry_Int_Tables_number   1
_chemical_formula_structural   Li8Nb2O9
_chemical_formula_sum   'Li32 Nb8 O36'
_cell_volume   753.59340110
_cell_formula_units_Z   4
loop_
 _symmetry_equiv_pos_site_id
 _symmetry_equiv_pos_as_xyz
  1  'x, y, z'
loop_
 _atom_site_type_symbol
 _atom_site_label
 _atom_site_symmetry_multiplicity
 _atom_site_fract_x
 _atom_site_fract_y
 _atom_site_fract_z
 _atom_site_occupancy
  Li  Li1  1  0.503482  0.091963  0.643995  1
  Li  Li2  1  0.496518  0.908037  0.356005  1
  Li  Li3  1  0.865988  0.158590  0.850893  1
  Li  Li4  1  0.134012  0.841410  0.149107  1
  Li  Li5  1  0.206736  0.660394  0.659969  1
  Li  Li6  1  0.793264  0.339606  0.340031  1
  Li  Li7  1  0.152092  0.590975  0.845777  1
  Li  Li8  1  0.847908  0.409025  0.154223  1
  Li  Li9  1  0.333982  0.875767  0.737814  1
  Li  Li10  1  0.666018  0.124233  0.262186  1
  Li  Li11  1  0.792809  0.876504  0.738493  1
  Li  Li12  1  0.207191  0.123496  0.261507  1
  Li  Li13  1  0.573422  0.375358  0.760511  1
  Li  Li14  1  0.426578  0.624642  0.239489  1
  Li  Li15  1  0.029498  0.377073  0.762736  1
  Li  Li16  1  0.970502  0.622927  0.237264  1
  Li  Li17  1  0.687836  0.878030  0.961746  1
  Li  Li18  1  0.312164  0.121970  0.038254  1
  Li  Li19  1  0.207739  0.878696  0.975740  1
  Li  Li20  1  0.792261  0.121304  0.024260  1
  Li  Li21  1  0.456497  0.372040  0.945981  1
  Li  Li22  1  0.543503  0.627960  0.054019  1
  Li  Li23  1  0.954259  0.369795  0.962086  1
  Li  Li24  1  0.045741  0.630205  0.037914  1
  Li  Li25  1  0.420528  0.872938  0.539628  1
  Li  Li26  1  0.579472  0.127062  0.460372  1
  Li  Li27  1  0.912981  0.873344  0.549800  1
  Li  Li28  1  0.087019  0.126656  0.450200  1
  Li  Li29  1  0.684451  0.377105  0.522981  1
  Li  Li30  1  0.315549  0.622895  0.477019  1
  Li  Li31  1  0.145131  0.374258  0.542921  1
  Li  Li32  1  0.854869  0.625742  0.457079  1
  O  O33  1  0.906795  0.105557  0.344158  1
  O  O34  1  0.256397  0.603747  0.142842  1
  O  O35  1  0.743603  0.396253  0.857158  1
  O  O36  1  0.173863  0.363160  0.054740  1
  O  O37  1  0.826137  0.636840  0.945260  1
  O  O38  1  0.668647  0.357492  0.059269  1
  O  O39  1  0.331353  0.642508  0.940731  1
  O  O40  1  0.379150  0.144421  0.357125  1
  O  O41  1  0.182287  0.123693  0.750716  1
  O  O42  1  0.817713  0.876307  0.249284  1
  O  O43  1  0.680653  0.127497  0.747015  1
  O  O44  1  0.319347  0.872503  0.252985  1
  O  O45  1  0.861155  0.373113  0.656649  1
  O  O46  1  0.138845  0.626887  0.343351  1
  O  O47  1  0.517903  0.876375  0.842883  1
  O  O48  1  0.482097  0.123625  0.157117  1
  O  O49  1  0.915588  0.626400  0.752342  1
  O  O50  1  0.084412  0.373600  0.247658  1
  O  O51  1  0.449626  0.625058  0.749130  1
  O  O52  1  0.550374  0.374942  0.250870  1
  O  O53  1  0.785298  0.135871  0.556152  1
  O  O54  1  0.214702  0.864129  0.443848  1
  O  O55  1  0.453532  0.386696  0.444075  1
  O  O56  1  0.734938  0.865625  0.440253  1
  O  O57  1  0.093205  0.894443  0.655842  1
  O  O58  1  0.620850  0.855579  0.642875  1
  O  O59  1  0.107074  0.114451  0.940977  1
  O  O60  1  0.892926  0.885549  0.059023  1
  O  O61  1  0.589429  0.115393  0.936216  1
  O  O62  1  0.410571  0.884607  0.063784  1
  O  O63  1  0.271677  0.356750  0.843735  1
  O  O64  1  0.728323  0.643250  0.156265  1
  O  O65  1  0.034143  0.611900  0.563359  1
  O  O66  1  0.965857  0.388100  0.436641  1
  O  O67  1  0.546468  0.613304  0.555925  1
  O  O68  1  0.265062  0.134375  0.559747  1
  Nb  Nb69  1  0.983217  0.123828  0.644650  1
  Nb  Nb70  1  0.370437  0.372704  0.138827  1
  Nb  Nb71  1  0.629563  0.627296  0.861173  1
  Nb  Nb72  1  0.267195  0.375180  0.356547  1
  Nb  Nb73  1  0.732805  0.624820  0.643453  1
  Nb  Nb74  1  0.621619  0.873370  0.150012  1
  Nb  Nb75  1  0.378381  0.126630  0.849988  1
  Nb  Nb76  1  0.016783  0.876172  0.355350  1
