# generated using pymatgen
data_K2S
_symmetry_space_group_name_H-M   'P 1'
_cell_length_a   5.29214565
_cell_length_b   7.29388251
_cell_length_c   9.21499765
_cell_angle_alpha   90.00000000
_cell_angle_beta   90.00000000
_cell_angle_gamma   90.00000000
_symmetry_Int_Tables_number   1
_chemical_formula_structural   K2S
_chemical_formula_sum   'K8 S4'
_cell_volume   355.70156871
_cell_formula_units_Z   4
loop_
 _symmetry_equiv_pos_site_id
 _symmetry_equiv_pos_as_xyz
  1  'x, y, z'
loop_
 _atom_site_type_symbol
 _atom_site_label
 _atom_site_symmetry_multiplicity
 _atom_site_fract_x
 _atom_site_fract_y
 _atom_site_fract_z
 _atom_site_occupancy
  K  K1  1  0.000000  0.750000  0.667399  1
  K  K2  1  0.000000  0.500000  0.000000  1
  K  K3  1  0.000000  0.000000  0.000000  1
  K  K4  1  0.500000  0.750000  0.167399  1
  K  K5  1  0.500000  0.250000  0.832601  1
  K  K6  1  0.000000  0.250000  0.332601  1
  K  K7  1  0.500000  0.500000  0.500000  1
  K  K8  1  0.500000  0.000000  0.500000  1
  S  S9  1  0.000000  0.750000  0.334466  1
  S  S10  1  0.500000  0.250000  0.165534  1
  S  S11  1  0.500000  0.750000  0.834466  1
  S  S12  1  0.000000  0.250000  0.665534  1
