# generated using pymatgen
data_LiNdO2
_symmetry_space_group_name_H-M   'P 1'
_cell_length_a   6.62000204
_cell_length_b   6.21057901
_cell_length_c   6.78514060
_cell_angle_alpha   90.00000000
_cell_angle_beta   121.20900117
_cell_angle_gamma   90.00000000
_symmetry_Int_Tables_number   1
_chemical_formula_structural   LiNdO2
_chemical_formula_sum   'Li4 Nd4 O8'
_cell_volume   238.59362669
_cell_formula_units_Z   4
loop_
 _symmetry_equiv_pos_site_id
 _symmetry_equiv_pos_as_xyz
  1  'x, y, z'
loop_
 _atom_site_type_symbol
 _atom_site_label
 _atom_site_symmetry_multiplicity
 _atom_site_fract_x
 _atom_site_fract_y
 _atom_site_fract_z
 _atom_site_occupancy
  Li  Li1  1  0.312087  0.836061  0.591124  1
  Li  Li2  1  0.687913  0.336061  0.908876  1
  Li  Li3  1  0.312087  0.663939  0.091123  1
  Li  Li4  1  0.687913  0.163939  0.408876  1
  Nd  Nd5  1  0.223202  0.134463  0.964220  1
  Nd  Nd6  1  0.223202  0.365537  0.464220  1
  Nd  Nd7  1  0.776798  0.634463  0.535780  1
  Nd  Nd8  1  0.776798  0.865537  0.035780  1
  O  O9  1  0.027717  0.807851  0.881070  1
  O  O10  1  0.027717  0.692149  0.381070  1
  O  O11  1  0.446971  0.104554  0.763499  1
  O  O12  1  0.553029  0.604554  0.736501  1
  O  O13  1  0.446971  0.395446  0.263499  1
  O  O14  1  0.553029  0.895446  0.236501  1
  O  O15  1  0.972283  0.307851  0.618930  1
  O  O16  1  0.972283  0.192149  0.118930  1
