# generated using pymatgen
data_Li6(NiO2)13
_symmetry_space_group_name_H-M   'P 1'
_cell_length_a   9.92459960
_cell_length_b   4.89469111
_cell_length_c   9.86070365
_cell_angle_alpha   85.22474806
_cell_angle_beta   112.49122957
_cell_angle_gamma   97.77975943
_symmetry_Int_Tables_number   1
_chemical_formula_structural   Li6(NiO2)13
_chemical_formula_sum   'Li6 Ni13 O26'
_cell_volume   438.24453394
_cell_formula_units_Z   1
loop_
 _symmetry_equiv_pos_site_id
 _symmetry_equiv_pos_as_xyz
  1  'x, y, z'
loop_
 _atom_site_type_symbol
 _atom_site_label
 _atom_site_symmetry_multiplicity
 _atom_site_fract_x
 _atom_site_fract_y
 _atom_site_fract_z
 _atom_site_occupancy
  Li  Li1  1  0.769686  0.690304  0.385423  1
  Li  Li2  1  0.707170  0.928766  0.852601  1
  Li  Li3  1  0.459877  0.611202  0.231857  1
  Li  Li4  1  0.386276  0.850337  0.691220  1
  Li  Li5  1  0.138984  0.532772  0.070476  1
  Li  Li6  1  0.076468  0.771234  0.537653  1
  Ni  Ni7  1  0.962368  0.615934  0.229806  1
  Ni  Ni8  1  0.883786  0.845604  0.693271  1
  Ni  Ni9  1  0.808221  0.077179  0.157519  1
  Ni  Ni10  1  0.730068  0.308232  0.613204  1
  Ni  Ni11  1  0.576890  0.769226  0.538258  1
  Ni  Ni12  1  0.654199  0.538662  0.074794  1
  Ni  Ni13  1  0.423077  0.230769  0.461538  1
  Ni  Ni14  1  0.499179  0.998846  0.004884  1
  Ni  Ni15  1  0.346975  0.462692  0.918193  1
  Ni  Ni16  1  0.191955  0.922876  0.848283  1
  Ni  Ni17  1  0.269264  0.692313  0.384819  1
  Ni  Ni18  1  0.116086  0.153306  0.309873  1
  Ni  Ni19  1  0.037933  0.384359  0.765558  1
  O  O20  1  0.989787  0.316874  0.143137  1
  O  O21  1  0.907122  0.551812  0.597516  1
  O  O22  1  0.939032  0.909727  0.325561  1
  O  O23  1  0.856367  0.144664  0.779940  1
  O  O24  1  0.744045  0.975779  0.521023  1
  O  O25  1  0.817531  0.759199  0.060099  1
  O  O26  1  0.673871  0.224207  0.987940  1
  O  O27  1  0.794507  0.403991  0.246169  1
  O  O28  1  0.718133  0.638567  0.710310  1
  O  O29  1  0.552502  0.065767  0.630136  1
  O  O30  1  0.600682  0.475478  0.444553  1
  O  O31  1  0.522643  0.703305  0.906295  1
  O  O32  1  0.628107  0.824655  0.172405  1
  O  O33  1  0.359620  0.135155  0.831974  1
  O  O34  1  0.435021  0.900739  0.366317  1
  O  O35  1  0.411133  0.560799  0.556760  1
  O  O36  1  0.486533  0.326384  0.091103  1
  O  O37  1  0.172282  0.237331  0.935137  1
  O  O38  1  0.293652  0.395771  0.292941  1
  O  O39  1  0.218047  0.636883  0.750671  1
  O  O40  1  0.323510  0.758233  0.016782  1
  O  O41  1  0.245472  0.986060  0.478524  1
  O  O42  1  0.051647  0.057547  0.676908  1
  O  O43  1  0.102109  0.485760  0.402054  1
  O  O44  1  0.028622  0.702339  0.862978  1
  O  O45  1  0.128021  0.822972  0.212767  1
