# generated using pymatgen
data_Li(NiO2)2
_symmetry_space_group_name_H-M   'P 1'
_cell_length_a   2.81351929
_cell_length_b   10.26376689
_cell_length_c   5.13606953
_cell_angle_alpha   32.42456201
_cell_angle_beta   90.00000447
_cell_angle_gamma   105.90968133
_symmetry_Int_Tables_number   1
_chemical_formula_structural   Li(NiO2)2
_chemical_formula_sum   'Li1 Ni2 O4'
_cell_volume   68.34700212
_cell_formula_units_Z   1
loop_
 _symmetry_equiv_pos_site_id
 _symmetry_equiv_pos_as_xyz
  1  'x, y, z'
loop_
 _atom_site_type_symbol
 _atom_site_label
 _atom_site_symmetry_multiplicity
 _atom_site_fract_x
 _atom_site_fract_y
 _atom_site_fract_z
 _atom_site_occupancy
  Li  Li1  1  0.999923  0.499923  0.000182  1
  Ni  Ni2  1  0.499756  0.499756  0.500309  1
  Ni  Ni3  1  0.500238  0.000238  0.499516  1
  O  O4  1  0.756235  0.756235  0.789830  1
  O  O5  1  0.793311  0.293311  0.698621  1
  O  O6  1  0.243690  0.243690  0.210258  1
  O  O7  1  0.206849  0.706849  0.301287  1
