# generated using pymatgen
data_K2O2
_symmetry_space_group_name_H-M   'P 1'
_cell_length_a   7.14375034
_cell_length_b   7.14375030
_cell_length_c   5.12295892
_cell_angle_alpha   90.00000000
_cell_angle_beta   90.00000000
_cell_angle_gamma   120.00000017
_symmetry_Int_Tables_number   1
_chemical_formula_structural   K2O2
_chemical_formula_sum   'K6 O6'
_cell_volume   226.41439701
_cell_formula_units_Z   3
loop_
 _symmetry_equiv_pos_site_id
 _symmetry_equiv_pos_as_xyz
  1  'x, y, z'
loop_
 _atom_site_type_symbol
 _atom_site_label
 _atom_site_symmetry_multiplicity
 _atom_site_fract_x
 _atom_site_fract_y
 _atom_site_fract_z
 _atom_site_occupancy
  K  K1  1  1.000000  0.705568  0.500000  1
  K  K2  1  0.294432  0.294432  0.500000  1
  K  K3  1  0.705568  0.000000  0.500000  1
  K  K4  1  1.000000  0.368149  0.000000  1
  K  K5  1  0.631851  0.631851  -0.000000  1
  K  K6  1  0.368149  -0.000000  -0.000000  1
  O  O7  1  0.666667  0.333333  0.349271  1
  O  O8  1  0.666667  0.333333  0.650729  1
  O  O9  1  0.333333  0.666667  0.650729  1
  O  O10  1  0.333333  0.666667  0.349271  1
  O  O11  1  0.000000  0.000000  0.851107  1
  O  O12  1  -0.000000  -0.000000  0.148893  1
