# generated using pymatgen
data_Li4Ni5O9
_symmetry_space_group_name_H-M   'P 1'
_cell_length_a   7.63425423
_cell_length_b   6.49469352
_cell_length_c   7.66377804
_cell_angle_alpha   85.57062355
_cell_angle_beta   64.64721627
_cell_angle_gamma   65.13682007
_symmetry_Int_Tables_number   1
_chemical_formula_structural   Li4Ni5O9
_chemical_formula_sum   'Li8 Ni10 O18'
_cell_volume   309.10353614
_cell_formula_units_Z   2
loop_
 _symmetry_equiv_pos_site_id
 _symmetry_equiv_pos_as_xyz
  1  'x, y, z'
loop_
 _atom_site_type_symbol
 _atom_site_label
 _atom_site_symmetry_multiplicity
 _atom_site_fract_x
 _atom_site_fract_y
 _atom_site_fract_z
 _atom_site_occupancy
  Li  Li1  1  0.721965  0.444196  0.947077  1
  Li  Li2  1  0.830864  0.667820  0.169637  1
  Li  Li3  1  0.607157  0.226348  0.723774  1
  Li  Li4  1  0.388641  0.778534  0.279403  1
  Li  Li5  1  0.166924  0.333582  0.830701  1
  Li  Li6  1  0.500247  0.999244  0.498375  1
  Li  Li7  1  0.281732  0.551430  0.054004  1
  Li  Li8  1  0.058025  0.109957  0.608141  1
  Ni  Ni9  1  0.892498  0.779982  0.775033  1
  Ni  Ni10  1  0.944444  0.888889  0.388889  1
  Ni  Ni11  1  0.444444  0.888889  0.888889  1
  Ni  Ni12  1  0.778897  0.555715  0.558458  1
  Ni  Ni13  1  0.336079  0.667519  0.665271  1
  Ni  Ni14  1  0.666544  0.332163  0.334597  1
  Ni  Ni15  1  0.222345  0.445614  0.443181  1
  Ni  Ni16  1  0.552810  0.110259  0.112507  1
  Ni  Ni17  1  0.109992  0.222062  0.219320  1
  Ni  Ni18  1  0.996391  0.997796  0.002744  1
  O  O19  1  0.969910  0.461464  0.682299  1
  O  O20  1  0.710550  0.888548  0.651818  1
  O  O21  1  0.806858  0.097426  0.883576  1
  O  O22  1  0.543160  0.573074  0.797994  1
  O  O23  1  0.263294  0.974070  0.755105  1
  O  O24  1  0.878219  0.221839  0.455805  1
  O  O25  1  0.585675  0.655984  0.438646  1
  O  O26  1  0.345729  0.204704  0.979784  1
  O  O27  1  0.082030  0.680352  0.894201  1
  O  O28  1  0.918979  0.316314  0.095479  1
  O  O29  1  0.625595  0.803708  0.022673  1
  O  O30  1  0.417461  0.357543  0.580941  1
  O  O31  1  0.140695  0.773900  0.526522  1
  O  O32  1  0.748194  0.003878  0.251255  1
  O  O33  1  0.471428  0.420235  0.196837  1
  O  O34  1  0.178338  0.889230  0.125959  1
  O  O35  1  0.303214  0.121794  0.339131  1
  O  O36  1  0.010670  0.555939  0.321973  1
