# generated using pymatgen
data_Li4(NiO2)7
_symmetry_space_group_name_H-M   'P 1'
_cell_length_a   7.65457935
_cell_length_b   6.43202135
_cell_length_c   4.92003060
_cell_angle_alpha   96.26953241
_cell_angle_beta   100.61946433
_cell_angle_gamma   87.79653399
_symmetry_Int_Tables_number   1
_chemical_formula_structural   Li4(NiO2)7
_chemical_formula_sum   'Li4 Ni7 O14'
_cell_volume   236.62045976
_cell_formula_units_Z   1
loop_
 _symmetry_equiv_pos_site_id
 _symmetry_equiv_pos_as_xyz
  1  'x, y, z'
loop_
 _atom_site_type_symbol
 _atom_site_label
 _atom_site_symmetry_multiplicity
 _atom_site_fract_x
 _atom_site_fract_y
 _atom_site_fract_z
 _atom_site_occupancy
  Li  Li1  1  0.144634  0.143021  0.570706  1
  Li  Li2  1  0.426795  0.428408  0.715009  1
  Li  Li3  1  0.712302  0.711407  0.863202  1
  Li  Li4  1  0.859128  0.860022  0.422513  1
  Ni  Ni5  1  0.066833  0.574163  0.783138  1
  Ni  Ni6  1  0.504596  0.997265  0.502576  1
  Ni  Ni7  1  0.641242  0.147734  0.072724  1
  Ni  Ni8  1  0.217120  0.709530  0.355497  1
  Ni  Ni9  1  0.354309  0.861899  0.930217  1
  Ni  Ni10  1  0.785714  0.285714  0.642857  1
  Ni  Ni11  1  0.930186  0.423695  0.212990  1
  O  O12  1  0.013339  0.308559  0.868495  1
  O  O13  1  0.406140  0.118322  0.804195  1
  O  O14  1  0.165289  0.453106  0.481520  1
  O  O15  1  0.292478  0.596223  0.016806  1
  O  O16  1  0.111716  0.830053  0.657079  1
  O  O17  1  0.558090  0.262870  0.417219  1
  O  O18  1  0.730376  0.019531  0.730404  1
  O  O19  1  0.278951  0.975205  0.268909  1
  O  O20  1  0.689295  0.401127  0.949202  1
  O  O21  1  0.882133  0.170302  0.336512  1
  O  O22  1  0.459712  0.741375  0.628635  1
  O  O23  1  0.604882  0.891334  0.190579  1
  O  O24  1  0.841052  0.551898  0.555311  1
  O  O25  1  0.966546  0.680094  0.095135  1
