# generated using pymatgen
data_Li17Ni11O28
_symmetry_space_group_name_H-M   'P 1'
_cell_length_a   13.19099124
_cell_length_b   5.79632156
_cell_length_c   6.40416100
_cell_angle_alpha   104.04455794
_cell_angle_beta   95.64854361
_cell_angle_gamma   82.89332162
_symmetry_Int_Tables_number   1
_chemical_formula_structural   Li17Ni11O28
_chemical_formula_sum   'Li17 Ni11 O28'
_cell_volume   470.17920343
_cell_formula_units_Z   1
loop_
 _symmetry_equiv_pos_site_id
 _symmetry_equiv_pos_as_xyz
  1  'x, y, z'
loop_
 _atom_site_type_symbol
 _atom_site_label
 _atom_site_symmetry_multiplicity
 _atom_site_fract_x
 _atom_site_fract_y
 _atom_site_fract_z
 _atom_site_occupancy
  Li  Li1  1  0.930077  0.854628  0.366921  1
  Li  Li2  1  0.786488  0.568502  0.071140  1
  Li  Li3  1  0.855321  0.215733  0.704676  1
  Li  Li4  1  0.714286  0.428571  0.428571  1
  Li  Li5  1  0.714286  0.928571  0.428571  1
  Li  Li6  1  0.573250  0.641410  0.152468  1
  Li  Li7  1  0.642084  0.288640  0.786002  1
  Li  Li8  1  0.498495  0.002515  0.490221  1
  Li  Li9  1  0.356819  0.210463  0.211048  1
  Li  Li10  1  0.425924  0.350091  0.856957  1
  Li  Li11  1  0.356435  0.717075  0.208673  1
  Li  Li12  1  0.283821  0.067626  0.569107  1
  Li  Li13  1  0.214286  0.428571  0.928571  1
  Li  Li14  1  0.144751  0.789517  0.288036  1
  Li  Li15  1  0.071753  0.646680  0.646094  1
  Li  Li16  1  0.072137  0.140068  0.648470  1
  Li  Li17  1  0.002647  0.507052  0.000186  1
  Ni  Ni18  1  0.929798  0.362251  0.358540  1
  Ni  Ni19  1  0.786253  0.072396  0.070228  1
  Ni  Ni20  1  0.857217  0.716677  0.713434  1
  Ni  Ni21  1  0.642318  0.784747  0.786915  1
  Ni  Ni22  1  0.571354  0.140466  0.143709  1
  Ni  Ni23  1  0.498773  0.494892  0.498603  1
  Ni  Ni24  1  0.427070  0.849184  0.858509  1
  Ni  Ni25  1  0.284890  0.563721  0.571233  1
  Ni  Ni26  1  0.214286  0.928571  0.928571  1
  Ni  Ni27  1  0.143682  0.293422  0.285909  1
  Ni  Ni28  1  0.001501  0.007959  0.998633  1
  O  O29  1  0.900999  0.280013  0.054599  1
  O  O30  1  0.952808  0.440167  0.662694  1
  O  O31  1  0.886901  0.799594  0.016804  1
  O  O32  1  0.957596  0.920104  0.695433  1
  O  O33  1  0.831774  0.632703  0.407997  1
  O  O34  1  0.830482  0.151747  0.369531  1
  O  O35  1  0.677699  0.323260  0.105671  1
  O  O36  1  0.750873  0.533883  0.751472  1
  O  O37  1  0.757133  0.987174  0.758069  1
  O  O38  1  0.671438  0.869968  0.099073  1
  O  O39  1  0.596798  0.224440  0.449146  1
  O  O40  1  0.598089  0.705396  0.487611  1
  O  O41  1  0.470975  0.937039  0.161710  1
  O  O42  1  0.475764  0.416976  0.194449  1
  O  O43  1  0.541670  0.057549  0.840339  1
  O  O44  1  0.527572  0.577130  0.802544  1
  O  O45  1  0.393701  0.310685  0.531208  1
  O  O46  1  0.391185  0.750516  0.540742  1
  O  O47  1  0.240256  0.018560  0.236452  1
  O  O48  1  0.324061  0.103483  0.889792  1
  O  O49  1  0.243362  0.494827  0.272770  1
  O  O50  1  0.318059  0.629592  0.873659  1
  O  O51  1  0.185209  0.362316  0.584373  1
  O  O52  1  0.188316  0.838583  0.620691  1
  O  O53  1  0.034871  0.546458  0.325935  1
  O  O54  1  0.037387  0.106627  0.316400  1
  O  O55  1  0.104511  0.753660  0.967351  1
  O  O56  1  0.110513  0.227551  0.983484  1
