# generated using pymatgen
data_LiNi6O7
_symmetry_space_group_name_H-M   'P 1'
_cell_length_a   5.11708119
_cell_length_b   5.91005798
_cell_length_c   8.86480594
_cell_angle_alpha   89.96496631
_cell_angle_beta   95.49226604
_cell_angle_gamma   106.82411235
_symmetry_Int_Tables_number   1
_chemical_formula_structural   LiNi6O7
_chemical_formula_sum   'Li2 Ni12 O14'
_cell_volume   255.33536176
_cell_formula_units_Z   2
loop_
 _symmetry_equiv_pos_site_id
 _symmetry_equiv_pos_as_xyz
  1  'x, y, z'
loop_
 _atom_site_type_symbol
 _atom_site_label
 _atom_site_symmetry_multiplicity
 _atom_site_fract_x
 _atom_site_fract_y
 _atom_site_fract_z
 _atom_site_occupancy
  Li  Li1  1  0.713889  0.928328  0.428716  1
  Li  Li2  1  0.428968  0.357386  0.856998  1
  Ni  Ni3  1  0.856705  0.214086  0.714069  1
  Ni  Ni4  1  0.853123  0.713284  0.713404  1
  Ni  Ni5  1  0.714972  0.429064  0.428814  1
  Ni  Ni6  1  0.427885  0.856650  0.856900  1
  Ni  Ni7  1  0.571429  0.142857  0.142857  1
  Ni  Ni8  1  0.571429  0.642857  0.142857  1
  Ni  Ni9  1  0.286152  0.071629  0.571645  1
  Ni  Ni10  1  0.289734  0.572430  0.572310  1
  Ni  Ni11  1  0.140153  0.282768  0.287121  1
  Ni  Ni12  1  0.144826  0.788406  0.288144  1
  Ni  Ni13  1  0.002705  0.002946  0.998593  1
  Ni  Ni14  1  0.998031  0.497308  0.997570  1
  O  O15  1  0.009407  0.746814  0.500893  1
  O  O16  1  0.719003  0.175398  0.929950  1
  O  O17  1  0.719426  0.684755  0.931964  1
  O  O18  1  0.856640  0.465152  0.214000  1
  O  O19  1  0.858483  0.963304  0.209445  1
  O  O20  1  0.574826  0.392566  0.637546  1
  O  O21  1  0.568031  0.893148  0.648168  1
  O  O22  1  0.423854  0.110317  0.355764  1
  O  O23  1  0.423431  0.600960  0.353750  1
  O  O24  1  0.135154  0.028230  0.782083  1
  O  O25  1  0.133451  0.538901  0.784821  1
  O  O26  1  0.284374  0.322410  0.076269  1
  O  O27  1  0.286217  0.820562  0.071714  1
  O  O28  1  0.007704  0.257484  0.503631  1
