# generated using pymatgen
data_Li5Br3O2
_symmetry_space_group_name_H-M   'P 1'
_cell_length_a   3.96807885
_cell_length_b   3.96807885
_cell_length_c   11.06927999
_cell_angle_alpha   100.32540075
_cell_angle_beta   100.32540075
_cell_angle_gamma   90.00000000
_symmetry_Int_Tables_number   1
_chemical_formula_structural   Li5Br3O2
_chemical_formula_sum   'Li5 Br3 O2'
_cell_volume   168.60064403
_cell_formula_units_Z   1
loop_
 _symmetry_equiv_pos_site_id
 _symmetry_equiv_pos_as_xyz
  1  'x, y, z'
loop_
 _atom_site_type_symbol
 _atom_site_label
 _atom_site_symmetry_multiplicity
 _atom_site_fract_x
 _atom_site_fract_y
 _atom_site_fract_z
 _atom_site_occupancy
  Li  Li1  1  0.500000  0.500000  0.000000  1
  Li  Li2  1  0.685511  0.685511  0.371022  1
  Li  Li3  1  0.314489  0.314489  0.628978  1
  Li  Li4  1  0.092973  0.592973  0.185946  1
  Li  Li5  1  0.407027  0.907027  0.814054  1
  Br  Br6  1  0.000000  0.000000  0.000000  1
  Br  Br7  1  0.187251  0.187251  0.374502  1
  Br  Br8  1  0.812749  0.812749  0.625498  1
  O  O9  1  0.593369  0.593369  0.186738  1
  O  O10  1  0.406631  0.406631  0.813262  1
