# generated using pymatgen
data_K5Se3
_symmetry_space_group_name_H-M   'P 1'
_cell_length_a   6.19054344
_cell_length_b   9.72117445
_cell_length_c   9.71907681
_cell_angle_alpha   95.72841139
_cell_angle_beta   108.39070284
_cell_angle_gamma   71.51366300
_symmetry_Int_Tables_number   1
_chemical_formula_structural   K5Se3
_chemical_formula_sum   'K10 Se6'
_cell_volume   526.37667865
_cell_formula_units_Z   2
loop_
 _symmetry_equiv_pos_site_id
 _symmetry_equiv_pos_as_xyz
  1  'x, y, z'
loop_
 _atom_site_type_symbol
 _atom_site_label
 _atom_site_symmetry_multiplicity
 _atom_site_fract_x
 _atom_site_fract_y
 _atom_site_fract_z
 _atom_site_occupancy
  K  K1  1  0.911854  0.874414  0.693853  1
  K  K2  1  0.719579  0.866835  0.315312  1
  K  K3  1  0.212068  0.694131  0.126685  1
  K  K4  1  0.592339  0.684408  0.869418  1
  K  K5  1  0.246950  0.499731  0.498938  1
  K  K6  1  0.748332  0.500407  0.502626  1
  K  K7  1  0.409141  0.314874  0.134309  1
  K  K8  1  0.780742  0.305602  0.873341  1
  K  K9  1  0.275842  0.133387  0.683169  1
  K  K10  1  0.086480  0.125642  0.302632  1
  Se  Se11  1  0.339639  0.809343  0.495716  1
  Se  Se12  1  0.154239  0.501545  0.810037  1
  Se  Se13  1  0.842797  0.497343  0.190648  1
  Se  Se14  1  0.652614  0.190538  0.501513  1
  Se  Se15  1  0.298146  0.998956  0.998956  1
  Se  Se16  1  0.695948  0.001257  -0.000122  1
