# generated using pymatgen
data_Li19Ni23O42
_symmetry_space_group_name_H-M   'P 1'
_cell_length_a   15.15833015
_cell_length_b   39.80588344
_cell_length_c   9.70638828
_cell_angle_alpha   15.25485940
_cell_angle_beta   29.28837751
_cell_angle_gamma   29.36836185
_symmetry_Int_Tables_number   1
_chemical_formula_structural   Li19Ni23O42
_chemical_formula_sum   'Li19 Ni23 O42'
_cell_volume   733.03129310
_cell_formula_units_Z   1
loop_
 _symmetry_equiv_pos_site_id
 _symmetry_equiv_pos_as_xyz
  1  'x, y, z'
loop_
 _atom_site_type_symbol
 _atom_site_label
 _atom_site_symmetry_multiplicity
 _atom_site_fract_x
 _atom_site_fract_y
 _atom_site_fract_z
 _atom_site_occupancy
  Li  Li1  1  0.120896  0.140080  0.508684  1
  Li  Li2  1  0.500876  0.997695  0.508434  1
  Li  Li3  1  0.069594  0.288346  0.491926  1
  Li  Li4  1  0.456623  0.143956  0.489670  1
  Li  Li5  1  0.834001  0.999092  0.502977  1
  Li  Li6  1  0.407072  0.285534  0.498161  1
  Li  Li7  1  0.783435  0.142801  0.502858  1
  Li  Li8  1  0.356457  0.429462  0.497082  1
  Li  Li9  1  0.733923  0.284423  0.510861  1
  Li  Li10  1  0.314314  0.572483  0.489202  1
  Li  Li11  1  0.689641  0.430788  0.491931  1
  Li  Li12  1  0.263143  0.712006  0.507727  1
  Li  Li13  1  0.640575  0.571917  0.501467  1
  Li  Li14  1  0.214307  0.855487  0.506671  1
  Li  Li15  1  0.595198  0.714388  0.499667  1
  Li  Li16  1  0.976096  0.573207  0.492966  1
  Li  Li17  1  0.549821  0.856801  0.497973  1
  Li  Li18  1  0.927329  0.716750  0.491502  1
  Li  Li19  1  0.876066  0.856255  0.510411  1
  Ni  Ni20  1  0.000821  0.999158  0.003552  1
  Ni  Ni21  1  0.332638  0.999538  0.001565  1
  Ni  Ni22  1  0.167798  -0.000045  0.498196  1
  Ni  Ni23  1  0.288795  0.143608  0.993041  1
  Ni  Ni24  1  0.666916  0.998785  0.003268  1
  Ni  Ni25  1  0.241685  0.286175  0.994506  1
  Ni  Ni26  1  0.619563  0.142939  0.998974  1
  Ni  Ni27  1  0.189746  0.429417  0.996413  1
  Ni  Ni28  1  0.570906  0.285717  0.000689  1
  Ni  Ni29  1  0.948711  0.142415  0.005533  1
  Ni  Ni30  1  0.022636  0.428563  0.502070  1
  Ni  Ni31  1  0.145101  0.571835  0.995407  1
  Ni  Ni32  1  0.523583  0.429780  0.996651  1
  Ni  Ni33  1  0.901606  0.284885  0.007402  1
  Ni  Ni34  1  0.095448  0.714170  0.000108  1
  Ni  Ni35  1  0.475509  0.570816  0.005138  1
  Ni  Ni36  1  0.857756  0.429072  0.998321  1
  Ni  Ni37  1  0.045365  0.856743  0.004612  1
  Ni  Ni38  1  0.429736  0.715656  0.993068  1
  Ni  Ni39  1  0.806931  0.571024  0.004192  1
  Ni  Ni40  1  0.383397  0.857478  0.996151  1
  Ni  Ni41  1  0.760677  0.712865  0.007118  1
  Ni  Ni42  1  0.714887  0.857762  0.995005  1
  O  O43  1  0.072440  0.004903  0.257705  1
  O  O44  1  0.053366  0.139844  0.241853  1
  O  O45  1  0.414941  0.000119  0.252130  1
  O  O46  1  0.375845  0.150124  0.227433  1
  O  O47  1  0.746210  0.993632  0.290654  1
  O  O48  1  0.185246  0.139882  0.780067  1
  O  O49  1  0.331214  0.279536  0.276598  1
  O  O50  1  0.713426  0.143017  0.242895  1
  O  O51  1  0.137199  0.288818  0.757802  1
  O  O52  1  0.528246  0.150213  0.717252  1
  O  O53  1  0.270696  0.432062  0.240992  1
  O  O54  1  0.662150  0.278413  0.282579  1
  O  O55  1  0.117892  0.423959  0.741294  1
  O  O56  1  0.476877  0.285713  0.756765  1
  O  O57  1  0.859140  0.149164  0.723003  1
  O  O58  1  0.215653  0.579756  0.242530  1
  O  O59  1  0.597079  0.426161  0.290078  1
  O  O60  1  0.040117  0.567794  0.785738  1
  O  O61  1  0.005054  0.288837  0.219639  1
  O  O62  1  0.444401  0.434893  0.709358  1
  O  O63  1  0.814423  0.278601  0.772274  1
  O  O64  1  0.192163  0.714020  0.245654  1
  O  O65  1  0.573986  0.571894  0.238277  1
  O  O66  1  0.998433  0.714224  0.755599  1
  O  O67  1  0.932184  0.422238  0.299147  1
  O  O68  1  0.396612  0.580696  0.696295  1
  O  O69  1  0.775541  0.428485  0.747685  1
  O  O70  1  0.150455  0.860716  0.214428  1
  O  O71  1  0.520522  0.708107  0.280653  1
  O  O72  1  0.897020  0.568303  0.256537  1
  O  O73  1  0.336543  0.708668  0.770681  1
  O  O74  1  0.730877  0.578760  0.703117  1
  O  O75  1  0.459590  0.849745  0.297132  1
  O  O76  1  0.854131  0.719677  0.229794  1
  O  O77  1  0.293525  0.860252  0.743424  1
  O  O78  1  0.670089  0.720363  0.719559  1
  O  O79  1  0.793963  0.847839  0.303702  1
  O  O80  1  0.258503  0.006389  0.700280  1
  O  O81  1  0.616648  0.856619  0.761718  1
  O  O82  1  0.593314  0.002465  0.709822  1
  O  O83  1  0.975089  0.848632  0.757853  1
  O  O84  1  0.919619  0.996643  0.758857  1
