# generated using pymatgen
data_Li9Ni23O32
_symmetry_space_group_name_H-M   'P 1'
_cell_length_a   5.86460864
_cell_length_b   5.88391973
_cell_length_c   23.55033075
_cell_angle_alpha   59.79227001
_cell_angle_beta   60.06226017
_cell_angle_gamma   60.20964023
_symmetry_Int_Tables_number   1
_chemical_formula_structural   Li9Ni23O32
_chemical_formula_sum   'Li9 Ni23 O32'
_cell_volume   574.89230360
_cell_formula_units_Z   1
loop_
 _symmetry_equiv_pos_site_id
 _symmetry_equiv_pos_as_xyz
  1  'x, y, z'
loop_
 _atom_site_type_symbol
 _atom_site_label
 _atom_site_symmetry_multiplicity
 _atom_site_fract_x
 _atom_site_fract_y
 _atom_site_fract_z
 _atom_site_occupancy
  Li  Li1  1  0.401218  0.409705  0.218767  1
  Li  Li2  1  0.393497  0.889222  0.100534  1
  Li  Li3  1  0.890381  0.391051  0.102509  1
  Li  Li4  1  0.393885  0.399082  0.346969  1
  Li  Li5  1  0.386356  0.389877  0.477776  1
  Li  Li6  1  0.397064  0.391501  0.598671  1
  Li  Li7  1  0.900143  0.401401  0.595363  1
  Li  Li8  1  0.397404  0.395519  0.848141  1
  Li  Li9  1  0.887950  0.396092  0.848572  1
  Ni  Ni10  1  0.392759  0.392019  0.100261  1
  Ni  Ni11  1  0.397783  0.888074  0.223306  1
  Ni  Ni12  1  0.396866  0.893790  0.348683  1
  Ni  Ni13  1  0.891747  0.395289  0.223303  1
  Ni  Ni14  1  0.893758  0.892121  0.099163  1
  Ni  Ni15  1  0.898027  0.395633  0.348045  1
  Ni  Ni16  1  0.902528  0.895495  0.221667  1
  Ni  Ni17  1  0.392031  0.900241  0.473797  1
  Ni  Ni18  1  0.394677  0.396091  0.723293  1
  Ni  Ni19  1  0.395039  0.900565  0.597372  1
  Ni  Ni20  1  0.892550  0.395454  0.475776  1
  Ni  Ni21  1  0.899315  0.890492  0.348738  1
  Ni  Ni22  1  0.891587  0.898640  0.473843  1
  Ni  Ni23  1  0.393656  0.895233  0.723774  1
  Ni  Ni24  1  0.393067  0.386579  0.974249  1
  Ni  Ni25  1  0.393463  0.895923  0.848297  1
  Ni  Ni26  1  0.894773  0.396248  0.723107  1
  Ni  Ni27  1  0.893049  0.895392  0.598112  1
  Ni  Ni28  1  0.895185  0.895694  0.723233  1
  Ni  Ni29  1  0.394427  0.892821  0.973711  1
  Ni  Ni30  1  0.897391  0.392782  0.972442  1
  Ni  Ni31  1  0.893535  0.899217  0.848743  1
  Ni  Ni32  1  0.890013  0.890162  0.975793  1
  O  O33  1  0.149024  0.134255  0.032290  1
  O  O34  1  0.148991  0.637141  0.035907  1
  O  O35  1  0.146867  0.144431  0.163879  1
  O  O36  1  0.136519  0.641843  0.160532  1
  O  O37  1  0.133784  0.126755  0.290264  1
  O  O38  1  0.644380  0.150469  0.035700  1
  O  O39  1  0.625257  0.654272  0.031048  1
  O  O40  1  0.643830  0.137147  0.161335  1
  O  O41  1  0.141528  0.645418  0.284921  1
  O  O42  1  0.135977  0.140444  0.412340  1
  O  O43  1  0.126392  0.663623  0.407962  1
  O  O44  1  0.139927  0.138464  0.537258  1
  O  O45  1  0.650583  0.650561  0.162481  1
  O  O46  1  0.669053  0.119191  0.290501  1
  O  O47  1  0.652128  0.648590  0.286000  1
  O  O48  1  0.666183  0.130973  0.414648  1
  O  O49  1  0.125988  0.676681  0.529516  1
  O  O50  1  0.159381  0.126895  0.665543  1
  O  O51  1  0.144751  0.646566  0.661074  1
  O  O52  1  0.141122  0.152455  0.786623  1
  O  O53  1  0.661772  0.658008  0.407359  1
  O  O54  1  0.650749  0.141155  0.535957  1
  O  O55  1  0.647415  0.662850  0.532143  1
  O  O56  1  0.627902  0.124730  0.666601  1
  O  O57  1  0.156283  0.665486  0.782061  1
  O  O58  1  0.161147  0.115848  0.917256  1
  O  O59  1  0.139724  0.650492  0.912542  1
  O  O60  1  0.644395  0.640061  0.661245  1
  O  O61  1  0.647288  0.143471  0.785511  1
  O  O62  1  0.629882  0.664646  0.781520  1
  O  O63  1  0.647329  0.134317  0.914287  1
  O  O64  1  0.636795  0.652824  0.912056  1
