# generated using pymatgen
data_Li(NiO2)2
_symmetry_space_group_name_H-M   'P 1'
_cell_length_a   5.74753269
_cell_length_b   5.65968927
_cell_length_c   5.74095935
_cell_angle_alpha   90.00000110
_cell_angle_beta   119.96217574
_cell_angle_gamma   60.50431140
_symmetry_Int_Tables_number   1
_chemical_formula_structural   Li(NiO2)2
_chemical_formula_sum   'Li2 Ni4 O8'
_cell_volume   133.12408279
_cell_formula_units_Z   2
loop_
 _symmetry_equiv_pos_site_id
 _symmetry_equiv_pos_as_xyz
  1  'x, y, z'
loop_
 _atom_site_type_symbol
 _atom_site_label
 _atom_site_symmetry_multiplicity
 _atom_site_fract_x
 _atom_site_fract_y
 _atom_site_fract_z
 _atom_site_occupancy
  Li  Li1  1  0.000000  0.500000  0.500000  1
  Li  Li2  1  0.000000  0.500000  0.000000  1
  Ni  Ni3  1  0.500000  0.500000  0.500000  1
  Ni  Ni4  1  0.500000  0.000000  0.500000  1
  Ni  Ni5  1  0.000000  0.000000  0.500000  1
  Ni  Ni6  1  0.000000  0.000000  0.000000  1
  O  O7  1  0.954777  0.790121  0.727389  1
  O  O8  1  0.954777  0.255101  0.727389  1
  O  O9  1  0.500464  0.749767  0.714892  1
  O  O10  1  0.500464  0.749767  0.285572  1
  O  O11  1  0.499536  0.250233  0.714428  1
  O  O12  1  0.499536  0.250233  0.285108  1
  O  O13  1  0.045223  0.744899  0.272611  1
  O  O14  1  0.045223  0.209879  0.272611  1
