# generated using pymatgen
data_Li5Ni7O12
_symmetry_space_group_name_H-M   'P 1'
_cell_length_a   5.03649261
_cell_length_b   5.03649261
_cell_length_c   9.61046932
_cell_angle_alpha   84.97680710
_cell_angle_beta   95.02319545
_cell_angle_gamma   60.01161153
_symmetry_Int_Tables_number   1
_chemical_formula_structural   Li5Ni7O12
_chemical_formula_sum   'Li5 Ni7 O12'
_cell_volume   207.88420608
_cell_formula_units_Z   1
loop_
 _symmetry_equiv_pos_site_id
 _symmetry_equiv_pos_as_xyz
  1  'x, y, z'
loop_
 _atom_site_type_symbol
 _atom_site_label
 _atom_site_symmetry_multiplicity
 _atom_site_fract_x
 _atom_site_fract_y
 _atom_site_fract_z
 _atom_site_occupancy
  Li  Li1  1  0.159174  0.661177  0.501438  1
  Li  Li2  1  0.338181  0.836540  0.999303  1
  Li  Li3  1  0.661177  0.159174  0.998562  1
  Li  Li4  1  0.836540  0.338181  0.500697  1
  Li  Li5  1  0.915627  0.915627  0.750000  1
  Ni  Ni6  1  0.083476  0.083476  0.250000  1
  Ni  Ni7  1  0.999899  0.503382  0.997756  1
  Ni  Ni8  1  0.254474  0.254474  0.750000  1
  Ni  Ni9  1  0.503382  0.999899  0.502244  1
  Ni  Ni10  1  0.415541  0.415541  0.250000  1
  Ni  Ni11  1  0.582063  0.582063  0.750000  1
  Ni  Ni12  1  0.748291  0.748291  0.250000  1
  O  O13  1  0.980774  0.227476  0.868032  1
  O  O14  1  0.227476  0.980774  0.631968  1
  O  O15  1  0.140801  0.357982  0.379290  1
  O  O16  1  0.357982  0.140801  0.120710  1
  O  O17  1  0.306143  0.521008  0.863086  1
  O  O18  1  0.521008  0.306143  0.636914  1
  O  O19  1  0.476379  0.712853  0.365726  1
  O  O20  1  0.712853  0.476379  0.134274  1
  O  O21  1  0.632543  0.845000  0.870782  1
  O  O22  1  0.845000  0.632543  0.629218  1
  O  O23  1  0.784020  0.017196  0.370048  1
  O  O24  1  0.017196  0.784020  0.129952  1
