# generated using pymatgen
data_Li4(NiO2)5
_symmetry_space_group_name_H-M   'P 1'
_cell_length_a   8.04458023
_cell_length_b   4.96147389
_cell_length_c   5.73551360
_cell_angle_alpha   64.16872525
_cell_angle_beta   113.18603983
_cell_angle_gamma   87.05897302
_symmetry_Int_Tables_number   1
_chemical_formula_structural   Li4(NiO2)5
_chemical_formula_sum   'Li4 Ni5 O10'
_cell_volume   182.40535052
_cell_formula_units_Z   1
loop_
 _symmetry_equiv_pos_site_id
 _symmetry_equiv_pos_as_xyz
  1  'x, y, z'
loop_
 _atom_site_type_symbol
 _atom_site_label
 _atom_site_symmetry_multiplicity
 _atom_site_fract_x
 _atom_site_fract_y
 _atom_site_fract_z
 _atom_site_occupancy
  Li  Li1  1  0.244982  0.232174  0.804111  1
  Li  Li2  1  0.051994  0.865381  0.606394  1
  Li  Li3  1  0.752430  0.739082  0.199632  1
  Li  Li4  1  0.556015  0.362988  0.999055  1
  Ni  Ni5  1  0.997549  0.003317  0.996502  1
  Ni  Ni6  1  0.195997  0.401460  0.194634  1
  Ni  Ni7  1  0.600997  0.197130  0.601857  1
  Ni  Ni8  1  0.402498  0.800606  0.404987  1
  Ni  Ni9  1  0.802027  0.597828  0.801459  1
  O  O10  1  0.415187  0.214763  0.209922  1
  O  O11  1  0.209272  0.820628  0.002836  1
  O  O12  1  0.016501  0.435696  0.792708  1
  O  O13  1  0.388419  0.386694  0.597125  1
  O  O14  1  0.816130  0.005383  0.615930  1
  O  O15  1  0.176856  0.990024  0.370056  1
  O  O16  1  0.633587  0.614539  0.446420  1
  O  O17  1  0.963998  0.577074  0.157930  1
  O  O18  1  0.783668  0.181775  0.991891  1
  O  O19  1  0.591795  0.773264  0.806454  1
