# generated using pymatgen
data_Li2(NiO2)3
_symmetry_space_group_name_H-M   'P 1'
_cell_length_a   4.89222635
_cell_length_b   4.89173127
_cell_length_c   10.20676836
_cell_angle_alpha   90.57663372
_cell_angle_beta   76.06456262
_cell_angle_gamma   61.45167767
_symmetry_Int_Tables_number   1
_chemical_formula_structural   Li2(NiO2)3
_chemical_formula_sum   'Li4 Ni6 O12'
_cell_volume   205.99275120
_cell_formula_units_Z   2
loop_
 _symmetry_equiv_pos_site_id
 _symmetry_equiv_pos_as_xyz
  1  'x, y, z'
loop_
 _atom_site_type_symbol
 _atom_site_label
 _atom_site_symmetry_multiplicity
 _atom_site_fract_x
 _atom_site_fract_y
 _atom_site_fract_z
 _atom_site_occupancy
  Li  Li1  1  0.842403  0.409052  0.243023  1
  Li  Li2  1  0.840832  0.243495  0.743367  1
  Li  Li3  1  0.165464  0.585705  0.743269  1
  Li  Li4  1  0.500157  0.084513  0.243118  1
  Ni  Ni5  1  0.663780  0.503078  0.502910  1
  Ni  Ni6  1  0.667024  0.333017  0.001924  1
  Ni  Ni7  1  0.003588  0.831443  0.493012  1
  Ni  Ni8  1  0.000266  0.666669  0.002959  1
  Ni  Ni9  1  0.331097  0.168901  0.501878  1
  Ni  Ni10  1  0.338583  0.996542  0.993003  1
  O  O11  1  0.744211  0.981839  0.892669  1
  O  O12  1  0.954309  0.515809  0.606062  1
  O  O13  1  0.723011  0.800556  0.400089  1
  O  O14  1  0.619291  0.688104  0.104533  1
  O  O15  1  0.236805  0.884549  0.601551  1
  O  O16  1  0.400777  0.622798  0.900124  1
  O  O17  1  0.909576  0.060558  0.106047  1
  O  O18  1  0.583288  0.224041  0.604520  1
  O  O19  1  0.417564  0.435449  0.392734  1
  O  O20  1  0.282956  0.338435  0.101601  1
  O  O21  1  0.042908  0.310178  0.892810  1
  O  O22  1  0.089250  0.136698  0.392693  1
