# generated using pymatgen
data_Li2(NiO2)3
_symmetry_space_group_name_H-M   'P 1'
_cell_length_a   6.46716081
_cell_length_b   18.85605948
_cell_length_c   5.62118192
_cell_angle_alpha   86.03490527
_cell_angle_beta   64.51873702
_cell_angle_gamma   85.91584955
_symmetry_Int_Tables_number   1
_chemical_formula_structural   Li2(NiO2)3
_chemical_formula_sum   'Li12 Ni18 O36'
_cell_volume   616.66088932
_cell_formula_units_Z   6
loop_
 _symmetry_equiv_pos_site_id
 _symmetry_equiv_pos_as_xyz
  1  'x, y, z'
loop_
 _atom_site_type_symbol
 _atom_site_label
 _atom_site_symmetry_multiplicity
 _atom_site_fract_x
 _atom_site_fract_y
 _atom_site_fract_z
 _atom_site_occupancy
  Li  Li1  1  0.163484  0.333343  0.578924  1
  Li  Li2  1  0.400019  0.447358  0.706254  1
  Li  Li3  1  0.499657  0.001144  0.753189  1
  Li  Li4  1  0.069220  0.781592  0.002401  1
  Li  Li5  1  0.167793  0.333433  0.091914  1
  Li  Li6  1  0.269059  0.886043  0.163981  1
  Li  Li7  1  0.833815  0.665142  0.907179  1
  Li  Li8  1  0.932130  0.218403  0.965347  1
  Li  Li9  1  0.502249  0.999302  0.248764  1
  Li  Li10  1  0.598300  0.551139  0.291123  1
  Li  Li11  1  0.730095  0.114253  0.370795  1
  Li  Li12  1  0.833745  0.669324  0.427657  1
  Ni  Ni13  1  0.105339  0.555411  0.558300  1
  Ni  Ni14  1  0.217606  0.112329  0.610162  1
  Ni  Ni15  1  0.334103  0.666389  0.666449  1
  Ni  Ni16  1  0.452055  0.220764  0.720360  1
  Ni  Ni17  1  0.117514  0.554074  0.054078  1
  Ni  Ni18  1  0.562866  0.778065  0.774150  1
  Ni  Ni19  1  0.665087  0.333645  0.834398  1
  Ni  Ni20  1  0.227847  0.110382  0.104481  1
  Ni  Ni21  1  0.330754  0.667782  0.167679  1
  Ni  Ni22  1  0.782772  0.887949  0.889840  1
  Ni  Ni23  1  0.884283  0.445670  0.944056  1
  Ni  Ni24  1  0.440188  0.221862  0.226374  1
  Ni  Ni25  1  0.550814  0.779441  0.280271  1
  Ni  Ni26  1  0.667108  0.333222  0.333776  1
  Ni  Ni27  1  0.774086  0.889483  0.392992  1
  Ni  Ni28  1  0.896105  0.444687  0.437939  1
  Ni  Ni29  1  0.998412  0.001854  0.498098  1
  Ni  Ni30  1  0.000817  0.999396  0.000060  1
  O  O31  1  0.007679  0.110948  0.967619  1
  O  O32  1  0.006934  0.103371  0.462443  1
  O  O33  1  0.108186  0.452234  0.586212  1
  O  O34  1  0.993726  0.899834  0.528110  1
  O  O35  1  0.088230  0.653279  0.542321  1
  O  O36  1  0.224315  0.012437  0.630458  1
  O  O37  1  0.222253  0.213008  0.584886  1
  O  O38  1  0.438233  0.112476  0.740793  1
  O  O39  1  0.327873  0.558857  0.687088  1
  O  O40  1  0.447898  0.333008  0.690487  1
  O  O41  1  0.342670  0.771477  0.646327  1
  O  O42  1  0.105655  0.445014  0.077730  1
  O  O43  1  0.994099  0.889640  0.038239  1
  O  O44  1  0.576626  0.680143  0.796673  1
  O  O45  1  0.117281  0.667736  0.023857  1
  O  O46  1  0.563971  0.881249  0.755103  1
  O  O47  1  0.234982  0.999860  0.112717  1
  O  O48  1  0.660397  0.231481  0.877190  1
  O  O49  1  0.234915  0.221765  0.070022  1
  O  O50  1  0.676419  0.436587  0.792007  1
  O  O51  1  0.779708  0.786104  0.915395  1
  O  O52  1  0.439396  0.118489  0.255058  1
  O  O53  1  0.766869  0.987904  0.887229  1
  O  O54  1  0.323486  0.561536  0.206246  1
  O  O55  1  0.884413  0.332907  0.973675  1
  O  O56  1  0.424875  0.319736  0.226636  1
  O  O57  1  0.896930  0.554796  0.920160  1
  O  O58  1  0.342525  0.776122  0.126797  1
  O  O59  1  0.546026  0.666380  0.310318  1
  O  O60  1  0.562691  0.887341  0.239025  1
  O  O61  1  0.660051  0.221736  0.360434  1
  O  O62  1  0.773738  0.001510  0.364527  1
  O  O63  1  0.673559  0.443793  0.309599  1
  O  O64  1  0.769635  0.778620  0.413920  1
  O  O65  1  0.906413  0.346119  0.448436  1
  O  O66  1  0.894218  0.546733  0.412783  1
