# generated using pymatgen
data_LiNiO2
_symmetry_space_group_name_H-M   'P 1'
_cell_length_a   7.68236883
_cell_length_b   7.68236883
_cell_length_c   7.68236868
_cell_angle_alpha   43.68055303
_cell_angle_beta   43.68055303
_cell_angle_gamma   43.68055744
_symmetry_Int_Tables_number   1
_chemical_formula_structural   LiNiO2
_chemical_formula_sum   'Li3 Ni3 O6'
_cell_volume   196.29673307
_cell_formula_units_Z   3
loop_
 _symmetry_equiv_pos_site_id
 _symmetry_equiv_pos_as_xyz
  1  'x, y, z'
loop_
 _atom_site_type_symbol
 _atom_site_label
 _atom_site_symmetry_multiplicity
 _atom_site_fract_x
 _atom_site_fract_y
 _atom_site_fract_z
 _atom_site_occupancy
  Li  Li1  1  0.500000  0.500000  0.500000  1
  Li  Li2  1  0.166667  0.166667  0.166667  1
  Li  Li3  1  0.833333  0.833333  0.833333  1
  Ni  Ni4  1  0.000000  0.000000  0.000000  1
  Ni  Ni5  1  0.666667  0.666667  0.666667  1
  Ni  Ni6  1  0.333333  0.333333  0.333333  1
  O  O7  1  0.918614  0.918614  0.918614  1
  O  O8  1  0.081386  0.081386  0.081386  1
  O  O9  1  0.585281  0.585281  0.585281  1
  O  O10  1  0.748053  0.748053  0.748053  1
  O  O11  1  0.251947  0.251947  0.251947  1
  O  O12  1  0.414719  0.414719  0.414719  1
