# generated using pymatgen
data_Li3(NiO2)5
_symmetry_space_group_name_H-M   'P 1'
_cell_length_a   7.48248138
_cell_length_b   7.56894419
_cell_length_c   6.47079945
_cell_angle_alpha   92.49774030
_cell_angle_beta   91.38434496
_cell_angle_gamma   66.49333652
_symmetry_Int_Tables_number   1
_chemical_formula_structural   Li3(NiO2)5
_chemical_formula_sum   'Li6 Ni10 O20'
_cell_volume   335.72990345
_cell_formula_units_Z   2
loop_
 _symmetry_equiv_pos_site_id
 _symmetry_equiv_pos_as_xyz
  1  'x, y, z'
loop_
 _atom_site_type_symbol
 _atom_site_label
 _atom_site_symmetry_multiplicity
 _atom_site_fract_x
 _atom_site_fract_y
 _atom_site_fract_z
 _atom_site_occupancy
  Li  Li1  1  0.194491  0.691626  0.695476  1
  Li  Li2  1  0.388639  0.400807  0.397769  1
  Li  Li3  1  0.603658  0.104389  0.104366  1
  Li  Li4  1  0.384839  0.902363  0.899872  1
  Li  Li5  1  0.827266  0.309808  0.310865  1
  Li  Li6  1  0.802104  0.787975  0.793729  1
  Ni  Ni7  1  0.103382  0.096524  0.600211  1
  Ni  Ni8  1  0.099881  0.599583  0.102286  1
  Ni  Ni9  1  0.299555  0.298262  0.801620  1
  Ni  Ni10  1  0.498839  -0.000767  0.500594  1
  Ni  Ni11  1  0.300633  0.802219  0.295696  1
  Ni  Ni12  1  0.500692  0.501907  0.995433  1
  Ni  Ni13  1  0.702223  0.197956  0.700657  1
  Ni  Ni14  1  0.695978  0.701616  0.203711  1
  Ni  Ni15  1  0.899463  0.399178  0.900335  1
  Ni  Ni16  1  0.898014  0.901354  0.397136  1
  O  O17  1  0.044970  0.041768  0.328037  1
  O  O18  1  0.159399  0.154769  0.872175  1
  O  O19  1  0.044635  0.542964  0.831472  1
  O  O20  1  0.264797  0.222029  0.523055  1
  O  O21  1  0.160584  0.660026  0.371275  1
  O  O22  1  0.362286  0.359379  0.079366  1
  O  O23  1  0.269037  0.722080  0.011173  1
  O  O24  1  0.559276  0.050865  0.774630  1
  O  O25  1  0.439525  0.442940  0.723748  1
  O  O26  1  0.338184  0.875212  0.581538  1
  O  O27  1  0.637308  0.145957  0.423676  1
  O  O28  1  0.556192  0.553102  0.268935  1
  O  O29  1  0.462050  0.927761  0.224338  1
  O  O30  1  0.733421  0.277679  0.978579  1
  O  O31  1  0.639377  0.652072  0.929773  1
  O  O32  1  0.868622  0.316131  0.623123  1
  O  O33  1  0.734635  0.777601  0.478804  1
  O  O34  1  0.925848  0.480881  0.177977  1
  O  O35  1  0.836157  0.842941  0.122559  1
  O  O36  1  0.960516  0.951654  0.670648  1
