# generated using pymatgen
data_Li4(NiO2)11
_symmetry_space_group_name_H-M   'P 1'
_cell_length_a   7.41524542
_cell_length_b   7.74996614
_cell_length_c   7.63998157
_cell_angle_alpha   82.77329055
_cell_angle_beta   66.18935227
_cell_angle_gamma   68.83030587
_symmetry_Int_Tables_number   1
_chemical_formula_structural   Li4(NiO2)11
_chemical_formula_sum   'Li4 Ni11 O22'
_cell_volume   374.47294016
_cell_formula_units_Z   1
loop_
 _symmetry_equiv_pos_site_id
 _symmetry_equiv_pos_as_xyz
  1  'x, y, z'
loop_
 _atom_site_type_symbol
 _atom_site_label
 _atom_site_symmetry_multiplicity
 _atom_site_fract_x
 _atom_site_fract_y
 _atom_site_fract_z
 _atom_site_occupancy
  Li  Li1  1  0.374005  0.105917  0.901015  1
  Li  Li2  1  0.526881  0.646504  0.349203  1
  Li  Li3  1  0.834909  0.442507  0.561084  1
  Li  Li4  1  0.987973  0.988460  0.004508  1
  Ni  Ni5  1  0.227628  0.180150  0.316521  1
  Ni  Ni6  1  0.313189  0.460758  0.050435  1
  Ni  Ni7  1  0.049093  0.630951  0.859805  1
  Ni  Ni8  1  0.500598  0.998717  0.499640  1
  Ni  Ni9  1  0.136303  0.909890  0.592159  1
  Ni  Ni10  1  0.590713  0.273106  0.226286  1
  Ni  Ni11  1  0.411573  0.726704  0.770031  1
  Ni  Ni12  1  0.864157  0.090798  0.408215  1
  Ni  Ni13  1  0.951012  0.364687  0.139968  1
  Ni  Ni14  1  0.680986  0.545912  0.955178  1
  Ni  Ni15  1  0.772618  0.817553  0.682886  1
  O  O16  1  0.109627  0.121340  0.166709  1
  O  O17  1  0.068059  0.420376  0.288915  1
  O  O18  1  0.184524  0.703984  0.983903  1
  O  O19  1  0.998737  0.843343  0.466404  1
  O  O20  1  0.448712  0.212338  0.100492  1
  O  O21  1  0.365597  0.245916  0.442390  1
  O  O22  1  0.177857  0.388082  0.926306  1
  O  O23  1  0.456990  0.520481  0.174257  1
  O  O24  1  0.295057  0.669887  0.621284  1
  O  O25  1  0.743643  0.033449  0.262190  1
  O  O26  1  0.363530  0.934082  0.372905  1
  O  O27  1  0.621050  0.057013  0.645152  1
  O  O28  1  0.253627  0.969879  0.742033  1
  O  O29  1  0.724455  0.341523  0.355329  1
  O  O30  1  0.565565  0.486164  0.805959  1
  O  O31  1  0.796466  0.605371  0.104528  1
  O  O32  1  0.638856  0.748728  0.554378  1
  O  O33  1  0.544331  0.791979  0.902855  1
  O  O34  1  0.000670  0.155429  0.535582  1
  O  O35  1  0.818271  0.299901  0.006757  1
  O  O36  1  0.905023  0.570526  0.736232  1
  O  O37  1  0.914543  0.878917  0.808318  1
