# generated using pymatgen
data_Li3(NiO2)5
_symmetry_space_group_name_H-M   'P 1'
_cell_length_a   6.44000967
_cell_length_b   4.96465727
_cell_length_c   5.79844209
_cell_angle_alpha   73.81386442
_cell_angle_beta   105.09863762
_cell_angle_gamma   82.98099618
_symmetry_Int_Tables_number   1
_chemical_formula_structural   Li3(NiO2)5
_chemical_formula_sum   'Li3 Ni5 O10'
_cell_volume   168.05861484
_cell_formula_units_Z   1
loop_
 _symmetry_equiv_pos_site_id
 _symmetry_equiv_pos_as_xyz
  1  'x, y, z'
loop_
 _atom_site_type_symbol
 _atom_site_label
 _atom_site_symmetry_multiplicity
 _atom_site_fract_x
 _atom_site_fract_y
 _atom_site_fract_z
 _atom_site_occupancy
  Li  Li1  1  0.196085  0.399265  0.698751  1
  Li  Li2  1  0.800000  0.600000  0.300000  1
  Li  Li3  1  0.403915  0.800735  0.901249  1
  Ni  Ni4  1  0.993339  0.999749  0.004138  1
  Ni  Ni5  1  0.200338  0.399655  0.198925  1
  Ni  Ni6  1  0.606661  0.200251  0.595862  1
  Ni  Ni7  1  0.399662  0.800345  0.401075  1
  Ni  Ni8  1  0.800000  0.600000  0.800000  1
  O  O9  1  0.283861  0.094404  0.079010  1
  O  O10  1  0.316139  0.105596  0.520990  1
  O  O11  1  0.125789  0.679420  0.339891  1
  O  O12  1  0.474211  0.520580  0.260109  1
  O  O13  1  0.089193  0.669189  0.875298  1
  O  O14  1  0.914876  0.333033  0.126304  1
  O  O15  1  0.510807  0.530811  0.724702  1
  O  O16  1  0.685124  0.866967  0.473696  1
  O  O17  1  0.886247  0.319003  0.669861  1
  O  O18  1  0.713753  0.880997  0.930139  1
