# generated using pymatgen
data_Li9Ni15O28
_symmetry_space_group_name_H-M   'P 1'
_cell_length_a   8.22270435
_cell_length_b   8.57633146
_cell_length_c   7.55947257
_cell_angle_alpha   105.70464546
_cell_angle_beta   75.47318964
_cell_angle_gamma   75.49573992
_symmetry_Int_Tables_number   1
_chemical_formula_structural   Li9Ni15O28
_chemical_formula_sum   'Li9 Ni15 O28'
_cell_volume   466.90475149
_cell_formula_units_Z   1
loop_
 _symmetry_equiv_pos_site_id
 _symmetry_equiv_pos_as_xyz
  1  'x, y, z'
loop_
 _atom_site_type_symbol
 _atom_site_label
 _atom_site_symmetry_multiplicity
 _atom_site_fract_x
 _atom_site_fract_y
 _atom_site_fract_z
 _atom_site_occupancy
  Li  Li1  1  0.000000  0.500000  0.500000  1
  Li  Li2  1  0.271771  0.292293  0.568014  1
  Li  Li3  1  0.280130  0.792671  0.073702  1
  Li  Li4  1  0.575066  0.569888  0.149146  1
  Li  Li5  1  0.579228  0.063750  0.639811  1
  Li  Li6  1  0.420772  0.936250  0.360189  1
  Li  Li7  1  0.424934  0.430112  0.850854  1
  Li  Li8  1  0.719870  0.207329  0.926298  1
  Li  Li9  1  0.728229  0.707707  0.431986  1
  Ni  Ni10  1  0.000000  0.000000  0.000000  1
  Ni  Ni11  1  0.072260  0.070782  0.642944  1
  Ni  Ni12  1  0.075975  0.568441  0.135380  1
  Ni  Ni13  1  0.208988  0.709975  0.432289  1
  Ni  Ni14  1  0.212567  0.212411  0.929450  1
  Ni  Ni15  1  0.359021  0.354255  0.208072  1
  Ni  Ni16  1  0.500000  0.000000  0.000000  1
  Ni  Ni17  1  0.645500  0.142832  0.285507  1
  Ni  Ni18  1  0.500000  0.500000  0.500000  1
  Ni  Ni19  1  0.354500  0.857168  0.714493  1
  Ni  Ni20  1  0.640979  0.645745  0.791928  1
  Ni  Ni21  1  0.787433  0.787589  0.070550  1
  Ni  Ni22  1  0.791012  0.290025  0.567711  1
  Ni  Ni23  1  0.924025  0.431559  0.864620  1
  Ni  Ni24  1  0.927740  0.929218  0.357056  1
  O  O25  1  0.014512  0.290028  0.600669  1
  O  O26  1  0.031459  0.795686  0.093481  1
  O  O27  1  0.137474  0.349578  0.195605  1
  O  O28  1  0.163617  0.417244  0.874470  1
  O  O29  1  0.314989  0.549937  0.139900  1
  O  O30  1  0.256535  0.002624  0.977778  1
  O  O31  1  0.254310  0.494919  0.469374  1
  O  O32  1  0.312627  0.082265  0.656741  1
  O  O33  1  0.125312  0.871452  0.711007  1
  O  O34  1  0.173542  0.916133  0.380879  1
  O  O35  1  0.416048  0.152907  0.271674  1
  O  O36  1  0.577780  0.368567  0.229180  1
  O  O37  1  0.444407  0.707476  0.446347  1
  O  O38  1  0.467026  0.205459  0.944621  1
  O  O39  1  0.532974  0.794541  0.055379  1
  O  O40  1  0.555593  0.292524  0.553653  1
  O  O41  1  0.422220  0.631433  0.770820  1
  O  O42  1  0.583952  0.847093  0.728326  1
  O  O43  1  0.826458  0.083867  0.619121  1
  O  O44  1  0.874688  0.128548  0.288993  1
  O  O45  1  0.687373  0.917735  0.343259  1
  O  O46  1  0.745690  0.505081  0.530626  1
  O  O47  1  0.743465  0.997376  0.022222  1
  O  O48  1  0.685011  0.450063  0.860100  1
  O  O49  1  0.836383  0.582756  0.125530  1
  O  O50  1  0.862526  0.650422  0.804395  1
  O  O51  1  0.968541  0.204314  0.906519  1
  O  O52  1  0.985488  0.709972  0.399331  1
