# generated using pymatgen
data_Li4CO4
_symmetry_space_group_name_H-M   'P 1'
_cell_length_a   4.25702489
_cell_length_b   4.25702463
_cell_length_c   5.00084873
_cell_angle_alpha   115.74906131
_cell_angle_beta   115.74894812
_cell_angle_gamma   89.97005569
_symmetry_Int_Tables_number   1
_chemical_formula_structural   Li4CO4
_chemical_formula_sum   'Li4 C1 O4'
_cell_volume   71.51695922
_cell_formula_units_Z   1
loop_
 _symmetry_equiv_pos_site_id
 _symmetry_equiv_pos_as_xyz
  1  'x, y, z'
loop_
 _atom_site_type_symbol
 _atom_site_label
 _atom_site_symmetry_multiplicity
 _atom_site_fract_x
 _atom_site_fract_y
 _atom_site_fract_z
 _atom_site_occupancy
  Li  Li1  1  0.970492  0.970489  0.733563  1
  Li  Li2  1  0.377939  0.377937  0.742966  1
  Li  Li3  1  0.700567  0.102118  0.163512  1
  O  O4  1  0.824149  0.441732  0.663051  1
  O  O5  1  0.607299  0.607300  0.237776  1
  Li  Li6  1  0.102118  0.700566  0.163511  1
  O  O7  1  0.224793  0.224794  0.236952  1
  C  C8  1  0.523833  0.523834  0.449869  1
  O  O9  1  0.441730  0.824151  0.663051  1
