# generated using pymatgen
data_Li4Ni7O12
_symmetry_space_group_name_H-M   'P 1'
_cell_length_a   4.98630378
_cell_length_b   13.29732240
_cell_length_c   9.68066251
_cell_angle_alpha   99.38997838
_cell_angle_beta   94.63821360
_cell_angle_gamma   79.20411355
_symmetry_Int_Tables_number   1
_chemical_formula_structural   Li4Ni7O12
_chemical_formula_sum   'Li12 Ni21 O36'
_cell_volume   621.22378402
_cell_formula_units_Z   3
loop_
 _symmetry_equiv_pos_site_id
 _symmetry_equiv_pos_as_xyz
  1  'x, y, z'
loop_
 _atom_site_type_symbol
 _atom_site_label
 _atom_site_symmetry_multiplicity
 _atom_site_fract_x
 _atom_site_fract_y
 _atom_site_fract_z
 _atom_site_occupancy
  Li  Li1  1  0.782437  0.937567  0.002477  1
  Li  Li2  1  0.806872  0.641702  0.245204  1
  Li  Li3  1  0.725658  0.554567  0.493979  1
  Li  Li4  1  0.604546  0.780017  0.495879  1
  Li  Li5  1  0.447839  0.613049  0.005315  1
  Li  Li6  1  0.476164  0.308507  0.242379  1
  Li  Li7  1  0.141504  0.972755  0.255596  1
  Li  Li8  1  0.403450  0.215558  0.495615  1
  Li  Li9  1  0.052645  0.892692  0.493994  1
  Li  Li10  1  0.275147  0.443973  0.494639  1
  Li  Li11  1  0.234038  0.051436  0.005867  1
  Li  Li12  1  0.110528  0.286136  0.003432  1
  Ni  Ni13  1  0.995897  0.503796  0.005294  1
  Ni  Ni14  1  0.972291  0.805651  0.751414  1
  Ni  Ni15  1  0.906295  0.418871  0.251167  1
  Ni  Ni16  1  0.691547  0.860487  0.248033  1
  Ni  Ni17  1  0.830251  0.329842  0.495956  1
  Ni  Ni18  1  0.856501  0.028465  0.749930  1
  Ni  Ni19  1  0.750155  0.250050  0.750768  1
  Ni  Ni20  1  0.666701  0.169742  0.003890  1
  Ni  Ni21  1  0.640766  0.470500  0.750455  1
  Ni  Ni22  1  0.527309  0.695516  0.749510  1
  Ni  Ni23  1  0.413938  0.916521  0.751188  1
  Ni  Ni24  1  0.328361  0.832343  0.002770  1
  Ni  Ni25  1  0.586453  0.083472  0.248770  1
  Ni  Ni26  1  0.362162  0.526500  0.251543  1
  Ni  Ni27  1  0.239571  0.750961  0.249852  1
  Ni  Ni28  1  0.489698  0.001360  0.496417  1
  Ni  Ni29  1  0.156813  0.668101  0.496800  1
  Ni  Ni30  1  0.303229  0.137218  0.751147  1
  Ni  Ni31  1  0.194378  0.363076  0.750642  1
  Ni  Ni32  1  0.078306  0.584027  0.749973  1
  Ni  Ni33  1  0.031854  0.194056  0.249326  1
  O  O34  1  0.931321  0.769987  0.362529  1
  O  O35  1  0.788072  0.980693  0.357114  1
  O  O36  1  0.845946  0.675661  0.637479  1
  O  O37  1  0.950435  0.451313  0.617516  1
  O  O38  1  0.714433  0.907528  0.635772  1
  O  O39  1  0.777861  0.588790  0.861600  1
  O  O40  1  0.822265  0.278873  0.132241  1
  O  O41  1  0.482624  0.949614  0.132956  1
  O  O42  1  0.677588  0.511565  0.143380  1
  O  O43  1  0.901976  0.377686  0.868916  1
  O  O44  1  0.982203  0.157351  0.858472  1
  O  O45  1  0.627150  0.820230  0.857192  1
  O  O46  1  0.893308  0.082401  0.137727  1
  O  O47  1  0.542901  0.746922  0.143043  1
  O  O48  1  0.601320  0.435037  0.364093  1
  O  O49  1  0.733332  0.211246  0.365905  1
  O  O50  1  0.398024  0.873697  0.367726  1
  O  O51  1  0.455827  0.649859  0.359843  1
  O  O52  1  0.524111  0.342750  0.637499  1
  O  O53  1  0.593313  0.123566  0.633360  1
  O  O54  1  0.284053  0.790349  0.622785  1
  O  O55  1  0.386178  0.577877  0.638465  1
  O  O56  1  0.445895  0.251962  0.861323  1
  O  O57  1  0.115730  0.928623  0.869630  1
  O  O58  1  0.153990  0.614588  0.135733  1
  O  O59  1  0.348847  0.173929  0.139960  1
  O  O60  1  0.551309  0.046230  0.882630  1
  O  O61  1  0.010488  0.844731  0.142474  1
  O  O62  1  0.238674  0.707515  0.865601  1
  O  O63  1  0.292746  0.487342  0.855433  1
  O  O64  1  0.211113  0.415397  0.143661  1
  O  O65  1  0.283014  0.102477  0.359082  1
  O  O66  1  0.069317  0.540382  0.369442  1
  O  O67  1  0.121084  0.316776  0.362246  1
  O  O68  1  0.201678  0.012350  0.642043  1
  O  O69  1  0.057280  0.249095  0.642747  1
