# generated using pymatgen
data_Li13Ni15O28
_symmetry_space_group_name_H-M   'P 1'
_cell_length_a   8.27517673
_cell_length_b   8.64331039
_cell_length_c   7.67450974
_cell_angle_alpha   104.38228101
_cell_angle_beta   74.93982806
_cell_angle_gamma   75.78638106
_symmetry_Int_Tables_number   1
_chemical_formula_structural   Li13Ni15O28
_chemical_formula_sum   'Li13 Ni15 O28'
_cell_volume   484.42068063
_cell_formula_units_Z   1
loop_
 _symmetry_equiv_pos_site_id
 _symmetry_equiv_pos_as_xyz
  1  'x, y, z'
loop_
 _atom_site_type_symbol
 _atom_site_label
 _atom_site_symmetry_multiplicity
 _atom_site_fract_x
 _atom_site_fract_y
 _atom_site_fract_z
 _atom_site_occupancy
  Li  Li1  1  0.927590  0.428658  0.856108  1
  Li  Li2  1  0.787560  0.284462  0.569314  1
  Li  Li3  1  0.642889  0.642909  0.785624  1
  Li  Li4  1  0.213559  0.215987  0.929163  1
  Li  Li5  1  0.072083  0.069899  0.642493  1
  Li  Li6  1  0.498056  0.001244  0.002273  1
  Li  Li7  1  0.499321  0.501214  0.504379  1
  Li  Li8  1  0.931786  0.929103  0.356512  1
  Li  Li9  1  0.358264  0.857004  0.715497  1
  Li  Li10  1  0.353857  0.356287  0.214611  1
  Li  Li11  1  0.786472  0.784537  0.067193  1
  Li  Li12  1  0.210388  0.716079  0.430647  1
  Li  Li13  1  0.075305  0.569697  0.140693  1
  Ni  Ni14  1  0.712703  0.214139  0.930416  1
  Ni  Ni15  1  0.572980  0.071768  0.640877  1
  Ni  Ni16  1  0.859918  0.355646  0.211938  1
  Ni  Ni17  1  0.642856  0.142894  0.285703  1
  Ni  Ni18  1  0.856837  0.854804  0.715865  1
  Ni  Ni19  1  0.428757  0.431045  0.855805  1
  Ni  Ni20  1  0.284899  0.285590  0.573567  1
  Ni  Ni21  1  0.716359  0.712512  0.426078  1
  Ni  Ni22  1  0.142846  0.142891  0.285749  1
  Ni  Ni23  1  0.569363  0.573106  0.145261  1
  Ni  Ni24  1  0.142883  0.642749  0.785664  1
  Ni  Ni25  1  0.001067  0.000019  0.997726  1
  Ni  Ni26  1  0.425828  0.929888  0.359446  1
  Ni  Ni27  1  0.997869  0.498169  0.498674  1
  Ni  Ni28  1  0.287853  0.787637  0.072803  1
  O  O29  1  0.748077  0.011423  0.997474  1
  O  O30  1  0.954362  0.225142  0.947519  1
  O  O31  1  0.817715  0.067486  0.668111  1
  O  O32  1  0.893189  0.149860  0.276447  1
  O  O33  1  0.467220  0.219072  0.904339  1
  O  O34  1  0.889148  0.651997  0.780203  1
  O  O35  1  0.660369  0.425302  0.872519  1
  O  O36  1  0.331440  0.060600  0.623750  1
  O  O37  1  0.950696  0.697582  0.428121  1
  O  O38  1  0.768891  0.488142  0.476193  1
  O  O39  1  0.536993  0.275389  0.573808  1
  O  O40  1  0.193708  0.439845  0.851822  1
  O  O41  1  0.396701  0.633683  0.791624  1
  O  O42  1  0.392550  0.135767  0.294948  1
  O  O43  1  0.610539  0.349593  0.196703  1
  O  O44  1  0.802505  0.565846  0.152871  1
  O  O45  1  0.625915  0.859294  0.698535  1
  O  O46  1  0.039997  0.293779  0.555893  1
  O  O47  1  0.675426  0.935722  0.373714  1
  O  O48  1  0.483219  0.719972  0.419025  1
  O  O49  1  0.228228  0.510181  0.519694  1
  O  O50  1  0.334801  0.588402  0.143278  1
  O  O51  1  0.110225  0.342972  0.218797  1
  O  O52  1  0.091900  0.845708  0.719558  1
  O  O53  1  0.516962  0.797364  0.095168  1
  O  O54  1  0.175320  0.942754  0.352688  1
  O  O55  1  0.057541  0.775368  0.051726  1
  O  O56  1  0.246213  0.991816  0.015395  1
