# generated using pymatgen
data_LiNiO2
_symmetry_space_group_name_H-M   'P 1'
_cell_length_a   9.97877012
_cell_length_b   9.97876978
_cell_length_c   14.17332570
_cell_angle_alpha   19.31033661
_cell_angle_beta   19.31033756
_cell_angle_gamma   33.04791663
_symmetry_Int_Tables_number   1
_chemical_formula_structural   LiNiO2
_chemical_formula_sum   'Li4 Ni4 O8'
_cell_volume   135.43336823
_cell_formula_units_Z   4
loop_
 _symmetry_equiv_pos_site_id
 _symmetry_equiv_pos_as_xyz
  1  'x, y, z'
loop_
 _atom_site_type_symbol
 _atom_site_label
 _atom_site_symmetry_multiplicity
 _atom_site_fract_x
 _atom_site_fract_y
 _atom_site_fract_z
 _atom_site_occupancy
  Li  Li1  1  0.500000  0.500000  0.000000  1
  Li  Li2  1  0.000000  0.500000  0.500000  1
  Li  Li3  1  0.500000  0.000000  0.500000  1
  Li  Li4  1  0.500000  0.500000  0.500000  1
  Ni  Ni5  1  0.000000  0.000000  0.000000  1
  Ni  Ni6  1  0.000000  0.500000  0.000000  1
  Ni  Ni7  1  0.500000  0.000000  0.000000  1
  Ni  Ni8  1  0.000000  0.000000  0.500000  1
  O  O9  1  0.027023  0.027023  0.222801  1
  O  O10  1  0.957732  0.458282  0.313222  1
  O  O11  1  0.458282  0.957732  0.313222  1
  O  O12  1  0.972977  0.972977  0.777199  1
  O  O13  1  0.531676  0.531676  0.217167  1
  O  O14  1  0.042268  0.541718  0.686778  1
  O  O15  1  0.541718  0.042268  0.686778  1
  O  O16  1  0.468324  0.468324  0.782833  1
