# generated using pymatgen
data_LiNiO2
_symmetry_space_group_name_H-M   'P 1'
_cell_length_a   5.80042329
_cell_length_b   5.80043449
_cell_length_c   5.87923221
_cell_angle_alpha   120.06887887
_cell_angle_beta   120.06853829
_cell_angle_gamma   60.58929684
_symmetry_Int_Tables_number   1
_chemical_formula_structural   LiNiO2
_chemical_formula_sum   'Li4 Ni4 O8'
_cell_volume   140.33527844
_cell_formula_units_Z   4
loop_
 _symmetry_equiv_pos_site_id
 _symmetry_equiv_pos_as_xyz
  1  'x, y, z'
loop_
 _atom_site_type_symbol
 _atom_site_label
 _atom_site_symmetry_multiplicity
 _atom_site_fract_x
 _atom_site_fract_y
 _atom_site_fract_z
 _atom_site_occupancy
  Li  Li1  1  0.500002  0.500004  0.000006  1
  Li  Li2  1  0.499998  0.500001  0.500004  1
  Li  Li3  1  0.500000  0.000004  0.000008  1
  Li  Li4  1  0.000001  0.500004  0.000008  1
  Ni  Ni5  1  0.000015  0.000003  0.999992  1
  Ni  Ni6  1  0.499987  0.000003  0.500000  1
  Ni  Ni7  1  0.999998  0.499991  0.499995  1
  Ni  Ni8  1  0.000002  0.000003  0.499991  1
  O  O9  1  0.765562  0.765562  0.257120  1
  O  O10  1  0.779375  0.244038  0.274967  1
  O  O11  1  0.750344  0.750346  0.712949  1
  O  O12  1  0.755949  0.220641  0.725027  1
  O  O13  1  0.244041  0.779374  0.274970  1
  O  O14  1  0.249655  0.249651  0.287058  1
  O  O15  1  0.220636  0.755946  0.725019  1
  O  O16  1  0.234433  0.234440  0.742888  1
