# generated using pymatgen
data_Li5(NiO2)4
_symmetry_space_group_name_H-M   'P 1'
_cell_length_a   8.37306728
_cell_length_b   8.39191956
_cell_length_c   8.38169720
_cell_angle_alpha   90.01766822
_cell_angle_beta   90.01016191
_cell_angle_gamma   89.98291234
_symmetry_Int_Tables_number   1
_chemical_formula_structural   Li5(NiO2)4
_chemical_formula_sum   'Li20 Ni16 O32'
_cell_volume   588.94916903
_cell_formula_units_Z   4
loop_
 _symmetry_equiv_pos_site_id
 _symmetry_equiv_pos_as_xyz
  1  'x, y, z'
loop_
 _atom_site_type_symbol
 _atom_site_label
 _atom_site_symmetry_multiplicity
 _atom_site_fract_x
 _atom_site_fract_y
 _atom_site_fract_z
 _atom_site_occupancy
  Li  Li1  1  0.947510  0.052580  0.945955  1
  Li  Li2  1  0.610963  0.139183  0.624215  1
  Li  Li3  1  0.361428  0.125298  0.389462  1
  Li  Li4  1  0.123925  0.110573  0.139272  1
  Li  Li5  1  0.801499  0.198052  0.803116  1
  Li  Li6  1  0.302289  0.301624  0.196859  1
  Li  Li7  1  0.624909  0.390283  0.861359  1
  Li  Li8  1  0.860263  0.374482  0.610288  1
  Li  Li9  1  0.110807  0.359995  0.374816  1
  Li  Li10  1  0.447038  0.447555  0.053548  1
  Li  Li11  1  0.052048  0.551536  0.552758  1
  Li  Li12  1  0.388569  0.638895  0.874852  1
  Li  Li13  1  0.639424  0.624762  0.110569  1
  Li  Li14  1  0.874604  0.611079  0.360792  1
  Li  Li15  1  0.197084  0.697928  0.696704  1
  Li  Li16  1  0.698152  0.803758  0.301564  1
  Li  Li17  1  0.374789  0.889458  0.640071  1
  Li  Li18  1  0.138971  0.874661  0.889287  1
  Li  Li19  1  0.889861  0.860827  0.124637  1
  Li  Li20  1  0.552281  0.946187  0.448127  1
  Ni  Ni21  1  0.625368  0.124916  0.125051  1
  Ni  Ni22  1  0.125091  0.374861  0.875149  1
  Ni  Ni23  1  0.374974  0.624950  0.375023  1
  Ni  Ni24  1  0.874979  0.875168  0.625344  1
  Ni  Ni25  1  0.374858  0.123860  0.873945  1
  Ni  Ni26  1  0.125545  0.124757  0.624671  1
  Ni  Ni27  1  0.875613  0.125867  0.374944  1
  Ni  Ni28  1  0.376394  0.374309  0.625090  1
  Ni  Ni29  1  0.625821  0.374747  0.376145  1
  Ni  Ni30  1  0.874932  0.375635  0.125634  1
  Ni  Ni31  1  0.624840  0.624221  0.625537  1
  Ni  Ni32  1  0.874896  0.625225  0.876033  1
  Ni  Ni33  1  0.124073  0.626436  0.124960  1
  Ni  Ni34  1  0.624462  0.874582  0.874922  1
  Ni  Ni35  1  0.373885  0.874755  0.123908  1
  Ni  Ni36  1  0.125073  0.875850  0.374181  1
  O  O37  1  0.613428  0.117975  0.884731  1
  O  O38  1  0.383717  0.111924  0.120260  1
  O  O39  1  0.122753  0.121332  0.377941  1
  O  O40  1  0.136920  0.133904  0.870412  1
  O  O41  1  0.879892  0.114718  0.615438  1
  O  O42  1  0.372385  0.127621  0.628237  1
  O  O43  1  0.628916  0.133673  0.364616  1
  O  O44  1  0.866043  0.129691  0.134567  1
  O  O45  1  0.366404  0.371020  0.863864  1
  O  O46  1  0.128510  0.360800  0.632437  1
  O  O47  1  0.872904  0.373649  0.371988  1
  O  O48  1  0.379363  0.382949  0.386153  1
  O  O49  1  0.638567  0.367957  0.127156  1
  O  O50  1  0.623285  0.375960  0.624533  1
  O  O51  1  0.883626  0.386858  0.880023  1
  O  O52  1  0.111637  0.378981  0.117672  1
  O  O53  1  0.387382  0.619884  0.618001  1
  O  O54  1  0.615100  0.616732  0.382081  1
  O  O55  1  0.876655  0.622541  0.123326  1
  O  O56  1  0.862463  0.635138  0.627983  1
  O  O57  1  0.120251  0.615893  0.885230  1
  O  O58  1  0.628115  0.629565  0.870282  1
  O  O59  1  0.371500  0.638288  0.132199  1
  O  O60  1  0.135212  0.630875  0.365167  1
  O  O61  1  0.631840  0.872903  0.640095  1
  O  O62  1  0.871285  0.863017  0.865554  1
  O  O63  1  0.126961  0.873031  0.127051  1
  O  O64  1  0.621170  0.881779  0.110064  1
  O  O65  1  0.361958  0.867960  0.368896  1
  O  O66  1  0.376929  0.877141  0.878900  1
  O  O67  1  0.118428  0.889314  0.621515  1
  O  O68  1  0.888222  0.877748  0.384666  1
