# generated using pymatgen
data_Li4(NiO2)5
_symmetry_space_group_name_H-M   'P 1'
_cell_length_a   5.07017798
_cell_length_b   5.82180289
_cell_length_c   6.42406638
_cell_angle_alpha   104.82784961
_cell_angle_beta   96.74523493
_cell_angle_gamma   107.47151282
_symmetry_Int_Tables_number   1
_chemical_formula_structural   Li4(NiO2)5
_chemical_formula_sum   'Li4 Ni5 O10'
_cell_volume   170.92621968
_cell_formula_units_Z   1
loop_
 _symmetry_equiv_pos_site_id
 _symmetry_equiv_pos_as_xyz
  1  'x, y, z'
loop_
 _atom_site_type_symbol
 _atom_site_label
 _atom_site_symmetry_multiplicity
 _atom_site_fract_x
 _atom_site_fract_y
 _atom_site_fract_z
 _atom_site_occupancy
  Li  Li1  1  0.799164  0.593391  0.590052  1
  Li  Li2  1  0.600971  0.206640  0.210102  1
  Li  Li3  1  0.396049  0.788152  0.790761  1
  Li  Li4  1  0.003939  0.012006  0.009189  1
  Ni  Ni5  1  0.805012  0.102770  0.602563  1
  Ni  Ni6  1  0.403256  0.303122  0.798967  1
  Ni  Ni7  1  0.594978  0.697179  0.197422  1
  Ni  Ni8  1  0.200029  0.900008  0.399999  1
  Ni  Ni9  1  0.996698  0.496862  0.001011  1
  O  O10  1  0.866808  0.025801  0.309302  1
  O  O11  1  0.680037  0.638685  0.914078  1
  O  O12  1  0.873632  0.563112  0.273368  1
  O  O13  1  0.719906  0.161338  0.885901  1
  O  O14  1  0.533185  0.774143  0.490673  1
  O  O15  1  0.526372  0.236861  0.526638  1
  O  O16  1  0.304031  0.819098  0.101234  1
  O  O17  1  0.075557  0.434211  0.717271  1
  O  O18  1  0.324405  0.365773  0.082722  1
  O  O19  1  0.095969  0.980845  0.698747  1
