# generated using pymatgen
data_Li4CO4
_symmetry_space_group_name_H-M   'P 1'
_cell_length_a   4.64085614
_cell_length_b   5.58771592
_cell_length_c   5.85576085
_cell_angle_alpha   90.00000000
_cell_angle_beta   90.00000000
_cell_angle_gamma   91.72619036
_symmetry_Int_Tables_number   1
_chemical_formula_structural   Li4CO4
_chemical_formula_sum   'Li8 C2 O8'
_cell_volume   151.78142515
_cell_formula_units_Z   2
loop_
 _symmetry_equiv_pos_site_id
 _symmetry_equiv_pos_as_xyz
  1  'x, y, z'
loop_
 _atom_site_type_symbol
 _atom_site_label
 _atom_site_symmetry_multiplicity
 _atom_site_fract_x
 _atom_site_fract_y
 _atom_site_fract_z
 _atom_site_occupancy
  Li  Li1  1  0.602562  0.943835  0.293183  1
  Li  Li2  1  0.085303  0.650599  0.083836  1
  Li  Li3  1  0.566672  0.296671  0.491158  1
  Li  Li4  1  0.102562  0.443835  0.706817  1
  Li  Li5  1  0.039421  0.988348  0.879712  1
  Li  Li6  1  0.066672  0.796671  0.508842  1
  Li  Li7  1  0.585303  0.150599  0.916164  1
  Li  Li8  1  0.539421  0.488348  0.120288  1
  C  C9  1  0.096081  0.243256  0.218490  1
  C  C10  1  0.596081  0.743256  0.781510  1
  O  O11  1  0.794359  0.250656  0.214132  1
  O  O12  1  0.212920  0.437858  0.356469  1
  O  O13  1  0.192500  0.021575  0.291536  1
  O  O14  1  0.712920  0.937858  0.643531  1
  O  O15  1  0.692500  0.521575  0.708464  1
  O  O16  1  0.204601  0.285891  0.989524  1
  O  O17  1  0.294359  0.750656  0.785868  1
  O  O18  1  0.704601  0.785891  0.010476  1
