# generated using pymatgen
data_Li(NiO2)2
_symmetry_space_group_name_H-M   'P 1'
_cell_length_a   8.07621642
_cell_length_b   8.07628461
_cell_length_c   8.07617423
_cell_angle_alpha   90.00413028
_cell_angle_beta   90.00815012
_cell_angle_gamma   89.99589414
_symmetry_Int_Tables_number   1
_chemical_formula_structural   Li(NiO2)2
_chemical_formula_sum   'Li8 Ni16 O32'
_cell_volume   526.77509724
_cell_formula_units_Z   8
loop_
 _symmetry_equiv_pos_site_id
 _symmetry_equiv_pos_as_xyz
  1  'x, y, z'
loop_
 _atom_site_type_symbol
 _atom_site_label
 _atom_site_symmetry_multiplicity
 _atom_site_fract_x
 _atom_site_fract_y
 _atom_site_fract_z
 _atom_site_occupancy
  Li  Li1  1  0.001591  0.001456  0.001322  1
  Li  Li2  1  0.248666  0.248293  0.248705  1
  Li  Li3  1  0.251292  0.751209  0.748627  1
  Li  Li4  1  0.498646  0.998822  0.501338  1
  Li  Li5  1  0.501359  0.498769  0.998376  1
  Li  Li6  1  0.748369  0.251194  0.751374  1
  Li  Li7  1  0.751371  0.748564  0.251592  1
  Li  Li8  1  0.998688  0.501734  0.498686  1
  Ni  Ni9  1  0.119411  0.130584  0.625045  1
  Ni  Ni10  1  0.124940  0.380424  0.869507  1
  Ni  Ni11  1  0.125076  0.875025  0.375029  1
  Ni  Ni12  1  0.130602  0.624874  0.119444  1
  Ni  Ni13  1  0.369311  0.374997  0.619265  1
  Ni  Ni14  1  0.374917  0.124907  0.875004  1
  Ni  Ni15  1  0.375070  0.619414  0.369338  1
  Ni  Ni16  1  0.380688  0.869276  0.124970  1
  Ni  Ni17  1  0.619533  0.369582  0.374902  1
  Ni  Ni18  1  0.625030  0.119462  0.130548  1
  Ni  Ni19  1  0.624971  0.625103  0.624947  1
  Ni  Ni20  1  0.630492  0.875011  0.880561  1
  Ni  Ni21  1  0.869491  0.125127  0.380590  1
  Ni  Ni22  1  0.875049  0.374988  0.125053  1
  Ni  Ni23  1  0.874970  0.880756  0.630750  1
  Ni  Ni24  1  0.880462  0.630506  0.875095  1
  O  O25  1  0.100932  0.126090  0.393384  1
  O  O26  1  0.106659  0.899180  0.626369  1
  O  O27  1  0.113857  0.613733  0.886112  1
  O  O28  1  0.123955  0.148982  0.856733  1
  O  O29  1  0.126189  0.393119  0.101047  1
  O  O30  1  0.135851  0.363970  0.636086  1
  O  O31  1  0.143403  0.623953  0.350868  1
  O  O32  1  0.149256  0.856544  0.123704  1
  O  O33  1  0.350792  0.143345  0.623658  1
  O  O34  1  0.356610  0.376129  0.850758  1
  O  O35  1  0.364052  0.635872  0.135947  1
  O  O36  1  0.373683  0.606667  0.600733  1
  O  O37  1  0.376376  0.850834  0.356645  1
  O  O38  1  0.386101  0.386051  0.385786  1
  O  O39  1  0.393373  0.100677  0.126320  1
  O  O40  1  0.399050  0.873651  0.893285  1
  O  O41  1  0.600795  0.373826  0.606544  1
  O  O42  1  0.606764  0.601011  0.373923  1
  O  O43  1  0.614092  0.885981  0.113948  1
  O  O44  1  0.623909  0.351028  0.143180  1
  O  O45  1  0.625889  0.106689  0.899100  1
  O  O46  1  0.636148  0.136245  0.363899  1
  O  O47  1  0.643259  0.876398  0.649130  1
  O  O48  1  0.649000  0.643341  0.875965  1
  O  O49  1  0.851050  0.356879  0.376151  1
  O  O50  1  0.856755  0.123894  0.149064  1
  O  O51  1  0.863853  0.864010  0.864187  1
  O  O52  1  0.873815  0.893463  0.399276  1
  O  O53  1  0.876226  0.649322  0.643464  1
  O  O54  1  0.886022  0.114167  0.614033  1
  O  O55  1  0.893198  0.398931  0.873964  1
  O  O56  1  0.899089  0.626084  0.106803  1
