# generated using pymatgen
data_Li3Ni5O8
_symmetry_space_group_name_H-M   'P 1'
_cell_length_a   5.84059919
_cell_length_b   5.84059924
_cell_length_c   5.85781700
_cell_angle_alpha   90.00000534
_cell_angle_beta   60.09718338
_cell_angle_gamma   60.00000269
_symmetry_Int_Tables_number   1
_chemical_formula_structural   Li3Ni5O8
_chemical_formula_sum   'Li3 Ni5 O8'
_cell_volume   141.50506932
_cell_formula_units_Z   1
loop_
 _symmetry_equiv_pos_site_id
 _symmetry_equiv_pos_as_xyz
  1  'x, y, z'
loop_
 _atom_site_type_symbol
 _atom_site_label
 _atom_site_symmetry_multiplicity
 _atom_site_fract_x
 _atom_site_fract_y
 _atom_site_fract_z
 _atom_site_occupancy
  Li  Li1  1  0.000000  0.000000  0.500000  1
  Li  Li2  1  0.500000  0.000000  0.500000  1
  Li  Li3  1  0.500000  0.500000  0.500000  1
  Ni  Ni4  1  0.000000  0.500000  0.500000  1
  Ni  Ni5  1  0.000000  0.000000  0.000000  1
  Ni  Ni6  1  0.500000  0.000000  0.000000  1
  Ni  Ni7  1  0.000000  0.500000  0.000000  1
  Ni  Ni8  1  0.500000  0.500000  0.000000  1
  O  O9  1  0.476427  0.261787  0.785360  1
  O  O10  1  0.992484  0.257463  0.757569  1
  O  O11  1  0.499894  0.750053  0.757569  1
  O  O12  1  0.992484  0.750053  0.757569  1
  O  O13  1  0.007516  0.249947  0.242431  1
  O  O14  1  0.500106  0.249947  0.242431  1
  O  O15  1  0.007516  0.742537  0.242431  1
  O  O16  1  0.523573  0.738213  0.214640  1
