# generated using pymatgen
data_Li(NiO2)2
_symmetry_space_group_name_H-M   'P 1'
_cell_length_a   5.74116356
_cell_length_b   5.74839665
_cell_length_c   5.74808056
_cell_angle_alpha   59.81520678
_cell_angle_beta   60.19112689
_cell_angle_gamma   59.87742977
_symmetry_Int_Tables_number   1
_chemical_formula_structural   Li(NiO2)2
_chemical_formula_sum   'Li2 Ni4 O8'
_cell_volume   134.01763475
_cell_formula_units_Z   2
loop_
 _symmetry_equiv_pos_site_id
 _symmetry_equiv_pos_as_xyz
  1  'x, y, z'
loop_
 _atom_site_type_symbol
 _atom_site_label
 _atom_site_symmetry_multiplicity
 _atom_site_fract_x
 _atom_site_fract_y
 _atom_site_fract_z
 _atom_site_occupancy
  Li  Li1  1  0.128192  0.112326  0.128486  1
  Li  Li2  1  0.871762  0.887967  0.871436  1
  O  O3  1  0.287925  0.248114  0.711819  1
  O  O4  1  0.750658  0.749530  0.712791  1
  O  O5  1  0.712284  0.751493  0.288104  1
  O  O6  1  0.266954  0.699838  0.266231  1
  O  O7  1  0.249488  0.250410  0.287084  1
  O  O8  1  0.287156  0.752701  0.748922  1
  O  O9  1  0.732740  0.300221  0.734088  1
  O  O10  1  0.712855  0.247452  0.250998  1
  Ni  Ni11  1  0.499967  0.499961  0.500109  1
  Ni  Ni12  1  0.500092  0.999985  0.499880  1
  Ni  Ni13  1  1.000001  0.499896  0.500035  1
  Ni  Ni14  1  0.499934  0.500106  1.000014  1
