# generated using pymatgen
data_Li3Ni5O8
_symmetry_space_group_name_H-M   'P 1'
_cell_length_a   5.83591023
_cell_length_b   5.82234649
_cell_length_c   14.61791775
_cell_angle_alpha   78.75095882
_cell_angle_beta   95.26011045
_cell_angle_gamma   119.72159705
_symmetry_Int_Tables_number   1
_chemical_formula_structural   Li3Ni5O8
_chemical_formula_sum   'Li9 Ni15 O24'
_cell_volume   423.06015012
_cell_formula_units_Z   3
loop_
 _symmetry_equiv_pos_site_id
 _symmetry_equiv_pos_as_xyz
  1  'x, y, z'
loop_
 _atom_site_type_symbol
 _atom_site_label
 _atom_site_symmetry_multiplicity
 _atom_site_fract_x
 _atom_site_fract_y
 _atom_site_fract_z
 _atom_site_occupancy
  Li  Li1  1  0.831601  0.248866  0.833401  1
  Li  Li2  1  0.666801  0.749370  0.166301  1
  Li  Li3  1  0.333894  0.752738  0.833821  1
  Li  Li4  1  0.667029  0.251414  0.166229  1
  Li  Li5  1  0.502605  0.251211  0.500610  1
  Li  Li6  1  0.333506  0.247851  0.833913  1
  Li  Li7  1  0.166105  0.749717  0.166325  1
  Li  Li8  1  0.999254  0.746471  0.500016  1
  Li  Li9  1  0.999431  0.252183  0.499827  1
  Ni  Ni10  1  0.836031  0.751455  0.833658  1
  Ni  Ni11  1  0.833020  0.499801  0.333295  1
  Ni  Ni12  1  0.666583  0.497961  0.666758  1
  Ni  Ni13  1  0.497814  0.748904  0.500200  1
  Ni  Ni14  1  0.833257  -0.000015  0.333270  1
  Ni  Ni15  1  0.666611  0.001819  0.666500  1
  Ni  Ni16  1  0.499919  0.499954  0.000151  1
  Ni  Ni17  1  0.333207  0.499943  0.333257  1
  Ni  Ni18  1  0.165288  0.498328  0.668838  1
  Ni  Ni19  1  0.500235  0.000010  0.000392  1
  Ni  Ni20  1  0.333175  -0.000036  0.333262  1
  Ni  Ni21  1  0.168422  0.002303  0.663822  1
  Ni  Ni22  1  0.167555  0.250322  0.166454  1
  Ni  Ni23  1  0.000149  0.499874  0.000171  1
  Ni  Ni24  1  0.000036  0.000092  0.000171  1
  O  O25  1  0.822722  0.873122  0.586987  1
  O  O26  1  0.668571  0.870592  0.918329  1
  O  O27  1  0.832770  0.630488  0.072884  1
  O  O28  1  0.829434  0.373386  0.592634  1
  O  O29  1  0.668831  0.380019  0.918783  1
  O  O30  1  0.662403  0.628234  0.414719  1
  O  O31  1  0.514112  0.629426  0.745187  1
  O  O32  1  0.495745  0.865636  0.261139  1
  O  O33  1  0.333597  0.866904  0.585444  1
  O  O34  1  0.161021  0.870815  0.919154  1
  O  O35  1  0.838210  0.128534  0.081010  1
  O  O36  1  0.662751  0.119578  0.414340  1
  O  O37  1  0.500174  0.124343  0.741114  1
  O  O38  1  0.496743  0.372244  0.252306  1
  O  O39  1  0.332154  0.621932  0.080875  1
  O  O40  1  0.335372  0.382888  0.585669  1
  O  O41  1  0.167732  0.369896  0.927118  1
  O  O42  1  0.169865  0.627549  0.414836  1
  O  O43  1  0.998139  0.632591  0.747295  1
  O  O44  1  0.002895  0.878462  0.252781  1
  O  O45  1  0.332178  0.128217  0.081253  1
  O  O46  1  0.170039  0.133882  0.405411  1
  O  O47  1  0.999348  0.117923  0.747563  1
  O  O48  1  0.003665  0.372799  0.252525  1
