# generated using pymatgen
data_Li9(NiO2)10
_symmetry_space_group_name_H-M   'P 1'
_cell_length_a   7.58847632
_cell_length_b   7.58654536
_cell_length_c   6.42523952
_cell_angle_alpha   91.19018920
_cell_angle_beta   91.22775908
_cell_angle_gamma   67.59699213
_symmetry_Int_Tables_number   1
_chemical_formula_structural   Li9(NiO2)10
_chemical_formula_sum   'Li9 Ni10 O20'
_cell_volume   341.87473095
_cell_formula_units_Z   1
loop_
 _symmetry_equiv_pos_site_id
 _symmetry_equiv_pos_as_xyz
  1  'x, y, z'
loop_
 _atom_site_type_symbol
 _atom_site_label
 _atom_site_symmetry_multiplicity
 _atom_site_fract_x
 _atom_site_fract_y
 _atom_site_fract_z
 _atom_site_occupancy
  Li  Li1  1  0.809106  0.309958  0.307386  1
  Li  Li2  1  0.805887  0.790205  0.794786  1
  Li  Li3  1  0.608946  0.596003  0.598670  1
  Li  Li4  1  0.600229  0.104013  0.104705  1
  Li  Li5  1  0.399771  0.895987  0.895295  1
  Li  Li6  1  0.391054  0.403997  0.401330  1
  Li  Li7  1  0.190894  0.690042  0.692614  1
  Li  Li8  1  0.194113  0.209795  0.205214  1
  Li  Li9  1  0.000000  0.000000  0.000000  1
  Ni  Ni10  1  0.899639  0.899944  0.401632  1
  Ni  Ni11  1  0.898795  0.400742  0.897680  1
  Ni  Ni12  1  0.700985  0.699523  0.200245  1
  Ni  Ni13  1  0.500000  0.500000  0.000000  1
  Ni  Ni14  1  0.699805  0.197432  0.702018  1
  Ni  Ni15  1  0.300195  0.802568  0.297982  1
  Ni  Ni16  1  0.500000  0.000000  0.500000  1
  Ni  Ni17  1  0.101205  0.599258  0.102320  1
  Ni  Ni18  1  0.299015  0.300477  0.799755  1
  Ni  Ni19  1  0.100361  0.100056  0.598368  1
  O  O20  1  0.955100  0.951757  0.679291  1
  O  O21  1  0.842350  0.846821  0.123562  1
  O  O22  1  0.952113  0.455648  0.174267  1
  O  O23  1  0.727884  0.779693  0.486208  1
  O  O24  1  0.842651  0.339265  0.620930  1
  O  O25  1  0.644284  0.644815  0.916184  1
  O  O26  1  0.640588  0.146084  0.421181  1
  O  O27  1  0.445639  0.948820  0.221558  1
  O  O28  1  0.755741  0.251841  0.981497  1
  O  O29  1  0.558279  0.555076  0.278979  1
  O  O30  1  0.441721  0.444924  0.721021  1
  O  O31  1  0.355716  0.355185  0.083816  1
  O  O32  1  0.359412  0.853916  0.578819  1
  O  O33  1  0.554361  0.051180  0.778442  1
  O  O34  1  0.244259  0.748159  0.018503  1
  O  O35  1  0.157349  0.660735  0.379070  1
  O  O36  1  0.272116  0.220307  0.513792  1
  O  O37  1  0.157650  0.153179  0.876438  1
  O  O38  1  0.044900  0.048243  0.320709  1
  O  O39  1  0.047887  0.544352  0.825733  1
