# generated using pymatgen
data_Li4CO4
_symmetry_space_group_name_H-M   'P 1'
_cell_length_a   4.13955660
_cell_length_b   4.13955633
_cell_length_c   4.13955614
_cell_angle_alpha   90.00001398
_cell_angle_beta   90.00000263
_cell_angle_gamma   89.99998588
_symmetry_Int_Tables_number   1
_chemical_formula_structural   Li4CO4
_chemical_formula_sum   'Li4 C1 O4'
_cell_volume   70.93513484
_cell_formula_units_Z   1
loop_
 _symmetry_equiv_pos_site_id
 _symmetry_equiv_pos_as_xyz
  1  'x, y, z'
loop_
 _atom_site_type_symbol
 _atom_site_label
 _atom_site_symmetry_multiplicity
 _atom_site_fract_x
 _atom_site_fract_y
 _atom_site_fract_z
 _atom_site_occupancy
  Li  Li1  1  0.219118  0.780882  0.219118  1
  O  O2  1  0.299384  0.700616  0.700616  1
  O  O3  1  0.299384  0.299384  0.299384  1
  Li  Li4  1  0.219118  0.219118  0.780882  1
  Li  Li5  1  0.780882  0.780882  0.780882  1
  C  C6  1  0.500000  0.500000  0.500000  1
  O  O7  1  0.700616  0.299384  0.700616  1
  O  O8  1  0.700615  0.700615  0.299384  1
  Li  Li9  1  0.780882  0.219118  0.219118  1
