# generated using pymatgen
data_Li7Ni5O12
_symmetry_space_group_name_H-M   'P 1'
_cell_length_a   4.92672628
_cell_length_b   4.94852034
_cell_length_c   9.60148951
_cell_angle_alpha   85.03016354
_cell_angle_beta   100.02214338
_cell_angle_gamma   119.85442616
_symmetry_Int_Tables_number   1
_chemical_formula_structural   Li7Ni5O12
_chemical_formula_sum   'Li7 Ni5 O12'
_cell_volume   199.92176030
_cell_formula_units_Z   1
loop_
 _symmetry_equiv_pos_site_id
 _symmetry_equiv_pos_as_xyz
  1  'x, y, z'
loop_
 _atom_site_type_symbol
 _atom_site_label
 _atom_site_symmetry_multiplicity
 _atom_site_fract_x
 _atom_site_fract_y
 _atom_site_fract_z
 _atom_site_occupancy
  Li  Li1  1  0.991290  0.494428  0.004680  1
  Li  Li2  1  0.342550  0.172357  0.005019  1
  Li  Li3  1  0.158955  0.830212  0.496326  1
  Li  Li4  1  0.503140  0.494428  0.495320  1
  Li  Li5  1  0.829807  0.172357  0.494981  1
  Li  Li6  1  0.671257  0.830212  0.003674  1
  Li  Li7  1  0.747849  0.495698  0.250000  1
  Ni  Ni8  1  0.080999  0.161998  0.250000  1
  Ni  Ni9  1  0.251290  0.502580  0.750000  1
  Ni  Ni10  1  0.586813  0.173624  0.750000  1
  Ni  Ni11  1  0.414432  0.828864  0.250000  1
  Ni  Ni12  1  0.920726  0.841452  0.750000  1
  O  O13  1  0.230828  0.164788  0.635920  1
  O  O14  1  0.424605  0.134707  0.359071  1
  O  O15  1  0.144930  0.495913  0.360319  1
  O  O16  1  0.710101  0.134707  0.140929  1
  O  O17  1  0.933960  0.164788  0.864080  1
  O  O18  1  0.350983  0.495913  0.139681  1
  O  O19  1  0.631617  0.490735  0.866319  1
  O  O20  1  0.070808  0.856083  0.140034  1
  O  O21  1  0.289396  0.858668  0.859319  1
  O  O22  1  0.859118  0.490735  0.633681  1
  O  O23  1  0.569271  0.858668  0.640681  1
  O  O24  1  0.785275  0.856083  0.359966  1
