# generated using pymatgen
data_Li2(NiO2)3
_symmetry_space_group_name_H-M   'P 1'
_cell_length_a   4.94311614
_cell_length_b   4.98049720
_cell_length_c   10.11504263
_cell_angle_alpha   89.88133067
_cell_angle_beta   89.92209398
_cell_angle_gamma   60.04859415
_symmetry_Int_Tables_number   1
_chemical_formula_structural   Li2(NiO2)3
_chemical_formula_sum   'Li4 Ni6 O12'
_cell_volume   215.76617018
_cell_formula_units_Z   2
loop_
 _symmetry_equiv_pos_site_id
 _symmetry_equiv_pos_as_xyz
  1  'x, y, z'
loop_
 _atom_site_type_symbol
 _atom_site_label
 _atom_site_symmetry_multiplicity
 _atom_site_fract_x
 _atom_site_fract_y
 _atom_site_fract_z
 _atom_site_occupancy
  Li  Li1  1  0.497922  0.158046  0.750388  1
  Li  Li2  1  0.498927  0.343402  0.252430  1
  Li  Li3  1  0.488995  0.662143  0.752496  1
  Li  Li4  1  0.495603  0.844941  0.250121  1
  Ni  Ni5  1  0.996615  0.003085  0.001562  1
  Ni  Ni6  1  0.995843  0.501292  0.501054  1
  Ni  Ni7  1  0.332826  0.334819  0.001466  1
  Ni  Ni8  1  0.332104  0.833050  0.501068  1
  Ni  Ni9  1  0.672611  0.161695  0.500846  1
  Ni  Ni10  1  0.673504  0.663333  0.001617  1
  O  O11  1  0.003141  0.166937  0.594705  1
  O  O12  1  0.004595  0.327318  0.095895  1
  O  O13  1  0.004302  0.669697  0.907760  1
  O  O14  1  0.348213  0.002203  0.901357  1
  O  O15  1  0.004080  0.826169  0.406631  1
  O  O16  1  0.351893  0.146287  0.399682  1
  O  O17  1  0.347279  0.500100  0.601267  1
  O  O18  1  0.352697  0.647051  0.102901  1
  O  O19  1  0.641963  0.031716  0.109159  1
  O  O20  1  0.637899  0.332452  0.891989  1
  O  O21  1  0.641361  0.530789  0.393309  1
  O  O22  1  0.637098  0.830055  0.610525  1
