# generated using pymatgen
data_Li3(NiO2)4
_symmetry_space_group_name_H-M   'P 1'
_cell_length_a   5.79939942
_cell_length_b   5.64527985
_cell_length_c   5.71559586
_cell_angle_alpha   90.00000308
_cell_angle_beta   119.52311478
_cell_angle_gamma   61.40474772
_symmetry_Int_Tables_number   1
_chemical_formula_structural   Li3(NiO2)4
_chemical_formula_sum   'Li3 Ni4 O8'
_cell_volume   135.98369241
_cell_formula_units_Z   1
loop_
 _symmetry_equiv_pos_site_id
 _symmetry_equiv_pos_as_xyz
  1  'x, y, z'
loop_
 _atom_site_type_symbol
 _atom_site_label
 _atom_site_symmetry_multiplicity
 _atom_site_fract_x
 _atom_site_fract_y
 _atom_site_fract_z
 _atom_site_occupancy
  Li  Li1  1  0.000000  0.500000  0.500000  1
  Li  Li2  1  0.500000  0.000000  0.000000  1
  Li  Li3  1  0.000000  0.500000  0.000000  1
  Ni  Ni4  1  0.500000  0.500000  0.500000  1
  Ni  Ni5  1  0.500000  0.000000  0.500000  1
  Ni  Ni6  1  0.000000  0.000000  0.500000  1
  Ni  Ni7  1  0.000000  0.000000  0.000000  1
  O  O8  1  0.944885  0.790533  0.722442  1
  O  O9  1  0.004096  0.220625  0.752048  1
  O  O10  1  0.497095  0.755471  0.719281  1
  O  O11  1  0.497095  0.755471  0.277813  1
  O  O12  1  0.502905  0.244529  0.722187  1
  O  O13  1  0.502905  0.244529  0.280719  1
  O  O14  1  0.995904  0.779375  0.247952  1
  O  O15  1  0.055115  0.209467  0.277558  1
