# generated using pymatgen
data_Li2(NiO2)3
_symmetry_space_group_name_H-M   'P 1'
_cell_length_a   4.87325866
_cell_length_b   4.94097889
_cell_length_c   9.79242820
_cell_angle_alpha   89.62786155
_cell_angle_beta   90.03937172
_cell_angle_gamma   60.46767036
_symmetry_Int_Tables_number   1
_chemical_formula_structural   Li2(NiO2)3
_chemical_formula_sum   'Li4 Ni6 O12'
_cell_volume   205.14805254
_cell_formula_units_Z   2
loop_
 _symmetry_equiv_pos_site_id
 _symmetry_equiv_pos_as_xyz
  1  'x, y, z'
loop_
 _atom_site_type_symbol
 _atom_site_label
 _atom_site_symmetry_multiplicity
 _atom_site_fract_x
 _atom_site_fract_y
 _atom_site_fract_z
 _atom_site_occupancy
  Li  Li1  1  0.152703  0.641779  0.497352  1
  Li  Li2  1  0.039108  0.977558  0.996272  1
  Li  Li3  1  0.704808  0.643550  0.997470  1
  Li  Li4  1  0.484539  0.976220  0.496101  1
  Ni  Ni5  1  0.082711  0.618616  0.755013  1
  Ni  Ni6  1  0.464802  0.282441  0.244805  1
  Ni  Ni7  1  0.752398  0.282987  0.744785  1
  Ni  Ni8  1  0.132254  0.951149  0.253274  1
  Ni  Ni9  1  0.416264  0.951719  0.753201  1
  Ni  Ni10  1  0.798946  0.618028  0.255021  1
  O  O11  1  0.074560  0.258398  0.854786  1
  O  O12  1  0.167802  0.257682  0.354922  1
  O  O13  1  0.410322  0.288615  0.651065  1
  O  O14  1  0.104584  0.651807  0.146339  1
  O  O15  1  0.419128  0.628549  0.853695  1
  O  O16  1  0.800957  0.288059  0.151143  1
  O  O17  1  0.103781  0.957769  0.643032  1
  O  O18  1  0.452861  0.627957  0.353746  1
  O  O19  1  0.743115  0.652196  0.646366  1
  O  O20  1  0.437971  0.957637  0.143008  1
  O  O21  1  0.756852  0.926363  0.858037  1
  O  O22  1  0.817469  0.925667  0.358080  1
