# generated using pymatgen
data_Li(CO)2
_symmetry_space_group_name_H-M   'P 1'
_cell_length_a   3.38044040
_cell_length_b   6.03922260
_cell_length_c   6.03922340
_cell_angle_alpha   106.24359257
_cell_angle_beta   97.16982968
_cell_angle_gamma   97.16985894
_symmetry_Int_Tables_number   1
_chemical_formula_structural   Li(CO)2
_chemical_formula_sum   'Li2 C4 O4'
_cell_volume   115.78211272
_cell_formula_units_Z   2
loop_
 _symmetry_equiv_pos_site_id
 _symmetry_equiv_pos_as_xyz
  1  'x, y, z'
loop_
 _atom_site_type_symbol
 _atom_site_label
 _atom_site_symmetry_multiplicity
 _atom_site_fract_x
 _atom_site_fract_y
 _atom_site_fract_z
 _atom_site_occupancy
  O  O1  1  0.637349  0.693471  0.693472  1
  C  C2  1  0.000000  0.107824  0.892176  1
  Li  Li3  1  0.500000  0.352717  0.647283  1
  O  O4  1  1.000000  0.761061  0.238940  1
  C  C5  1  0.164786  0.138748  0.138747  1
  Li  Li6  1  0.500000  0.647283  0.352717  1
  O  O7  1  -0.000000  0.238940  0.761060  1
  C  C8  1  1.000000  0.892175  0.107825  1
  O  O9  1  0.362653  0.306530  0.306530  1
  C  C10  1  0.835213  0.861251  0.861251  1
