# generated using pymatgen
data_K2O
_symmetry_space_group_name_H-M   'P 1'
_cell_length_a   4.10796418
_cell_length_b   7.98977204
_cell_length_c   4.34260135
_cell_angle_alpha   90.00000000
_cell_angle_beta   68.07330259
_cell_angle_gamma   90.00000000
_symmetry_Int_Tables_number   1
_chemical_formula_structural   K2O
_chemical_formula_sum   'K4 O2'
_cell_volume   132.22115100
_cell_formula_units_Z   2
loop_
 _symmetry_equiv_pos_site_id
 _symmetry_equiv_pos_as_xyz
  1  'x, y, z'
loop_
 _atom_site_type_symbol
 _atom_site_label
 _atom_site_symmetry_multiplicity
 _atom_site_fract_x
 _atom_site_fract_y
 _atom_site_fract_z
 _atom_site_occupancy
  K  K1  1  0.082575  0.883429  0.037519  1
  K  K2  1  0.357593  0.628795  0.407965  1
  K  K3  1  0.642407  0.128795  0.592035  1
  K  K4  1  0.917425  0.383429  0.962481  1
  O  O5  1  0.290074  0.237776  0.242084  1
  O  O6  1  0.709926  0.737776  0.757916  1
