# generated using pymatgen
data_Li7Ni5O12
_symmetry_space_group_name_H-M   'P 1'
_cell_length_a   4.99010619
_cell_length_b   4.99010583
_cell_length_c   9.47664570
_cell_angle_alpha   85.06421631
_cell_angle_beta   94.93578477
_cell_angle_gamma   60.77189443
_symmetry_Int_Tables_number   1
_chemical_formula_structural   Li7Ni5O12
_chemical_formula_sum   'Li7 Ni5 O12'
_cell_volume   202.93412539
_cell_formula_units_Z   1
loop_
 _symmetry_equiv_pos_site_id
 _symmetry_equiv_pos_as_xyz
  1  'x, y, z'
loop_
 _atom_site_type_symbol
 _atom_site_label
 _atom_site_symmetry_multiplicity
 _atom_site_fract_x
 _atom_site_fract_y
 _atom_site_fract_z
 _atom_site_occupancy
  Li  Li1  1  0.258543  0.258543  0.750000  1
  Li  Li2  1  0.176634  0.655304  0.510089  1
  Li  Li3  1  0.326455  0.836741  0.990544  1
  Li  Li4  1  0.655304  0.176634  0.989911  1
  Li  Li5  1  0.836741  0.326455  0.509456  1
  Li  Li6  1  0.745953  0.745953  0.250000  1
  Li  Li7  1  0.918776  0.918776  0.750000  1
  Ni  Ni8  1  0.075947  0.075947  0.250000  1
  Ni  Ni9  1  0.003363  0.503955  0.995461  1
  Ni  Ni10  1  0.503955  0.003363  0.504539  1
  Ni  Ni11  1  0.413043  0.413043  0.250000  1
  Ni  Ni12  1  0.585676  0.585676  0.750000  1
  O  O13  1  0.938077  0.256201  0.873243  1
  O  O14  1  0.256201  0.938077  0.626757  1
  O  O15  1  0.159450  0.342076  0.374370  1
  O  O16  1  0.342076  0.159450  0.125630  1
  O  O17  1  0.301443  0.551324  0.867462  1
  O  O18  1  0.551324  0.301443  0.632538  1
  O  O19  1  0.422491  0.719063  0.358953  1
  O  O20  1  0.719063  0.422491  0.141047  1
  O  O21  1  0.651100  0.835456  0.880125  1
  O  O22  1  0.835456  0.651100  0.619875  1
  O  O23  1  0.754633  0.068297  0.369468  1
  O  O24  1  0.068297  0.754633  0.130532  1
