# generated using pymatgen
data_LiNiO2
_symmetry_space_group_name_H-M   'P 1'
_cell_length_a   5.04404410
_cell_length_b   5.06223033
_cell_length_c   7.55069844
_cell_angle_alpha   107.22642686
_cell_angle_beta   104.00352472
_cell_angle_gamma   100.02902649
_symmetry_Int_Tables_number   1
_chemical_formula_structural   LiNiO2
_chemical_formula_sum   'Li5 Ni5 O10'
_cell_volume   172.27920981
_cell_formula_units_Z   5
loop_
 _symmetry_equiv_pos_site_id
 _symmetry_equiv_pos_as_xyz
  1  'x, y, z'
loop_
 _atom_site_type_symbol
 _atom_site_label
 _atom_site_symmetry_multiplicity
 _atom_site_fract_x
 _atom_site_fract_y
 _atom_site_fract_z
 _atom_site_occupancy
  Li  Li1  1  0.205052  0.911427  0.409195  1
  Li  Li2  1  0.389232  0.282494  0.782665  1
  Li  Li3  1  0.500000  0.500000  0.500000  1
  Li  Li4  1  0.610768  0.717506  0.217335  1
  Li  Li5  1  0.794948  0.088573  0.590805  1
  Ni  Ni6  1  0.100094  0.695875  0.696390  1
  Ni  Ni7  1  0.000000  0.500000  0.000000  1
  Ni  Ni8  1  0.698949  0.895194  0.898535  1
  Ni  Ni9  1  0.301051  0.104806  0.101465  1
  Ni  Ni10  1  0.899906  0.304125  0.303610  1
  O  O11  1  0.058434  0.107296  0.861989  1
  O  O12  1  0.326961  0.715431  0.948658  1
  O  O13  1  0.130359  0.305204  0.539837  1
  O  O14  1  0.226461  0.475909  0.230369  1
  O  O15  1  0.442766  0.886623  0.663476  1
  O  O16  1  0.557234  0.113377  0.336524  1
  O  O17  1  0.773539  0.524091  0.769631  1
  O  O18  1  0.869641  0.694796  0.460163  1
  O  O19  1  0.673039  0.284569  0.051342  1
  O  O20  1  0.941566  0.892704  0.138011  1
