# generated using pymatgen
data_Li7Ni5O12
_symmetry_space_group_name_H-M   'P 1'
_cell_length_a   6.47165148
_cell_length_b   6.36874597
_cell_length_c   5.77097079
_cell_angle_alpha   76.94247486
_cell_angle_beta   116.53863614
_cell_angle_gamma   108.41973943
_symmetry_Int_Tables_number   1
_chemical_formula_structural   Li7Ni5O12
_chemical_formula_sum   'Li7 Ni5 O12'
_cell_volume   200.88471831
_cell_formula_units_Z   1
loop_
 _symmetry_equiv_pos_site_id
 _symmetry_equiv_pos_as_xyz
  1  'x, y, z'
loop_
 _atom_site_type_symbol
 _atom_site_label
 _atom_site_symmetry_multiplicity
 _atom_site_fract_x
 _atom_site_fract_y
 _atom_site_fract_z
 _atom_site_occupancy
  Li  Li1  1  0.497993  0.002893  0.249707  1
  Li  Li2  1  0.333333  0.333333  0.333333  1
  Li  Li3  1  0.830086  0.331280  0.083306  1
  Li  Li4  1  0.497670  0.006156  0.745102  1
  Li  Li5  1  0.168675  0.663774  0.416960  1
  Li  Li6  1  0.836581  0.335387  0.583361  1
  Li  Li7  1  0.168997  0.660511  0.921565  1
  Ni  Ni8  1  0.002714  0.001240  0.002259  1
  Ni  Ni9  1  0.004086  0.999875  0.500491  1
  Ni  Ni10  1  0.333333  0.333333  0.833333  1
  Ni  Ni11  1  0.662581  0.666792  0.166176  1
  Ni  Ni12  1  0.663953  0.665427  0.664408  1
  O  O13  1  0.220529  0.996227  0.358971  1
  O  O14  1  0.572758  0.352681  0.180951  1
  O  O15  1  0.093909  0.313986  0.485716  1
  O  O16  1  0.252148  0.020668  0.872626  1
  O  O17  1  0.571933  0.351282  0.715808  1
  O  O18  1  0.895119  0.681295  0.025915  1
  O  O19  1  0.094734  0.315384  0.950859  1
  O  O20  1  0.446138  0.670440  0.307696  1
  O  O21  1  0.912860  0.683049  0.538216  1
  O  O22  1  0.753806  0.983618  0.128451  1
  O  O23  1  0.414518  0.645999  0.794040  1
  O  O24  1  0.771547  0.985372  0.640752  1
