# generated using pymatgen
data_Li5NiO4
_symmetry_space_group_name_H-M   'P 1'
_cell_length_a   9.18443855
_cell_length_b   9.15284645
_cell_length_c   9.07108691
_cell_angle_alpha   90.00000000
_cell_angle_beta   90.00000000
_cell_angle_gamma   90.00000000
_symmetry_Int_Tables_number   1
_chemical_formula_structural   Li5NiO4
_chemical_formula_sum   'Li40 Ni8 O32'
_cell_volume   762.54963464
_cell_formula_units_Z   8
loop_
 _symmetry_equiv_pos_site_id
 _symmetry_equiv_pos_as_xyz
  1  'x, y, z'
loop_
 _atom_site_type_symbol
 _atom_site_label
 _atom_site_symmetry_multiplicity
 _atom_site_fract_x
 _atom_site_fract_y
 _atom_site_fract_z
 _atom_site_occupancy
  Li  Li1  1  0.109253  0.611944  0.143487  1
  Li  Li2  1  0.109253  0.888056  0.643487  1
  Li  Li3  1  0.117951  0.109947  0.840442  1
  Li  Li4  1  0.117951  0.390053  0.340442  1
  Li  Li5  1  0.118945  0.851769  0.373846  1
  Li  Li6  1  0.118945  0.648231  0.873846  1
  Li  Li7  1  0.147301  0.876528  0.103664  1
  Li  Li8  1  0.147301  0.623472  0.603664  1
  Li  Li9  1  0.156041  0.118905  0.394672  1
  Li  Li10  1  0.156041  0.381095  0.894672  1
  Li  Li11  1  0.343959  0.881095  0.894672  1
  Li  Li12  1  0.343959  0.618905  0.394672  1
  Li  Li13  1  0.352699  0.376528  0.103664  1
  Li  Li14  1  0.352699  0.123472  0.603664  1
  Li  Li15  1  0.381055  0.351769  0.373846  1
  Li  Li16  1  0.381055  0.148231  0.873846  1
  Li  Li17  1  0.382049  0.890053  0.340442  1
  Li  Li18  1  0.382049  0.609947  0.840442  1
  Li  Li19  1  0.390747  0.111944  0.143487  1
  Li  Li20  1  0.390747  0.388056  0.643487  1
  Li  Li21  1  0.609253  0.611944  0.356513  1
  Li  Li22  1  0.609253  0.888056  0.856513  1
  Li  Li23  1  0.617951  0.109947  0.659558  1
  Li  Li24  1  0.617951  0.390053  0.159558  1
  Li  Li25  1  0.618945  0.648231  0.626154  1
  Li  Li26  1  0.618945  0.851769  0.126154  1
  Li  Li27  1  0.647301  0.623472  0.896336  1
  Li  Li28  1  0.647301  0.876528  0.396336  1
  Li  Li29  1  0.656041  0.118905  0.105328  1
  Li  Li30  1  0.656041  0.381095  0.605328  1
  Li  Li31  1  0.843959  0.618905  0.105328  1
  Li  Li32  1  0.843959  0.881095  0.605328  1
  Li  Li33  1  0.852699  0.376528  0.396336  1
  Li  Li34  1  0.852699  0.123472  0.896336  1
  Li  Li35  1  0.881055  0.148231  0.626154  1
  Li  Li36  1  0.881055  0.351769  0.126154  1
  Li  Li37  1  0.882049  0.609947  0.659558  1
  Li  Li38  1  0.882049  0.890053  0.159558  1
  Li  Li39  1  0.890747  0.111944  0.356513  1
  Li  Li40  1  0.890747  0.388056  0.856513  1
  Ni  Ni41  1  0.117268  0.146586  0.118108  1
  Ni  Ni42  1  0.117268  0.353414  0.618108  1
  Ni  Ni43  1  0.382732  0.646586  0.118108  1
  Ni  Ni44  1  0.382732  0.853414  0.618108  1
  Ni  Ni45  1  0.617268  0.146586  0.381892  1
  Ni  Ni46  1  0.617268  0.353414  0.881892  1
  Ni  Ni47  1  0.882732  0.646586  0.381892  1
  Ni  Ni48  1  0.882732  0.853414  0.881892  1
  O  O49  1  0.006186  0.251622  0.485550  1
  O  O50  1  0.006186  0.248378  0.985550  1
  O  O51  1  0.035320  0.007849  0.244451  1
  O  O52  1  0.035320  0.492151  0.744451  1
  O  O53  1  0.245375  0.034179  0.000693  1
  O  O54  1  0.245375  0.465821  0.500693  1
  O  O55  1  0.245923  0.247884  0.238965  1
  O  O56  1  0.245923  0.252116  0.738965  1
  O  O57  1  0.254077  0.747884  0.238965  1
  O  O58  1  0.254077  0.752116  0.738965  1
  O  O59  1  0.254625  0.534179  0.000693  1
  O  O60  1  0.254625  0.965821  0.500693  1
  O  O61  1  0.464680  0.507849  0.244451  1
  O  O62  1  0.464680  0.992151  0.744451  1
  O  O63  1  0.493814  0.751622  0.485550  1
  O  O64  1  0.493814  0.748378  0.985550  1
  O  O65  1  0.506186  0.251622  0.014450  1
  O  O66  1  0.506186  0.248378  0.514450  1
  O  O67  1  0.535320  0.007849  0.255549  1
  O  O68  1  0.535320  0.492151  0.755549  1
  O  O69  1  0.745375  0.034179  0.499307  1
  O  O70  1  0.745375  0.465821  0.999307  1
  O  O71  1  0.745923  0.247884  0.261035  1
  O  O72  1  0.745923  0.252116  0.761035  1
  O  O73  1  0.754077  0.747884  0.261035  1
  O  O74  1  0.754077  0.752116  0.761035  1
  O  O75  1  0.754625  0.534179  0.499307  1
  O  O76  1  0.754625  0.965821  0.999307  1
  O  O77  1  0.964680  0.992151  0.755549  1
  O  O78  1  0.964680  0.507849  0.255549  1
  O  O79  1  0.993814  0.751622  0.014450  1
  O  O80  1  0.993814  0.748378  0.514450  1
