# generated using pymatgen
data_LiNiO2
_symmetry_space_group_name_H-M   'P 1'
_cell_length_a   5.08579094
_cell_length_b   5.08579095
_cell_length_c   5.08579090
_cell_angle_alpha   33.22613733
_cell_angle_beta   33.22613824
_cell_angle_gamma   33.22614236
_symmetry_Int_Tables_number   1
_chemical_formula_structural   LiNiO2
_chemical_formula_sum   'Li1 Ni1 O2'
_cell_volume   35.16064125
_cell_formula_units_Z   1
loop_
 _symmetry_equiv_pos_site_id
 _symmetry_equiv_pos_as_xyz
  1  'x, y, z'
loop_
 _atom_site_type_symbol
 _atom_site_label
 _atom_site_symmetry_multiplicity
 _atom_site_fract_x
 _atom_site_fract_y
 _atom_site_fract_z
 _atom_site_occupancy
  Li  Li1  1  0.500001  0.500001  0.499999  1
  O  O2  1  0.258078  0.258076  0.258077  1
  O  O3  1  0.741925  0.741922  0.741923  1
  Ni  Ni4  1  0.000000  0.000000  0.000000  1
