# generated using pymatgen
data_Li3(NiO2)5
_symmetry_space_group_name_H-M   'P 1'
_cell_length_a   5.03632364
_cell_length_b   5.00743140
_cell_length_c   7.47809262
_cell_angle_alpha   110.09283795
_cell_angle_beta   102.02688065
_cell_angle_gamma   100.08365261
_symmetry_Int_Tables_number   1
_chemical_formula_structural   Li3(NiO2)5
_chemical_formula_sum   'Li3 Ni5 O10'
_cell_volume   166.86129119
_cell_formula_units_Z   1
loop_
 _symmetry_equiv_pos_site_id
 _symmetry_equiv_pos_as_xyz
  1  'x, y, z'
loop_
 _atom_site_type_symbol
 _atom_site_label
 _atom_site_symmetry_multiplicity
 _atom_site_fract_x
 _atom_site_fract_y
 _atom_site_fract_z
 _atom_site_occupancy
  Li  Li1  1  0.221126  0.916704  0.416939  1
  Li  Li2  1  0.500000  0.500000  0.500000  1
  Li  Li3  1  0.778874  0.083296  0.583061  1
  Ni  Ni4  1  0.108129  0.700962  0.699673  1
  Ni  Ni5  1  0.000000  0.500000  0.000000  1
  Ni  Ni6  1  0.300951  0.112330  0.098422  1
  Ni  Ni7  1  0.699049  0.887670  0.901578  1
  Ni  Ni8  1  0.891871  0.299038  0.300327  1
  O  O9  1  0.055606  0.076700  0.854431  1
  O  O10  1  0.115456  0.321696  0.539133  1
  O  O11  1  0.315309  0.723540  0.948284  1
  O  O12  1  0.209080  0.472470  0.233265  1
  O  O13  1  0.446801  0.868950  0.666316  1
  O  O14  1  0.553199  0.131050  0.333684  1
  O  O15  1  0.790920  0.527530  0.766735  1
  O  O16  1  0.684691  0.276460  0.051716  1
  O  O17  1  0.884544  0.678304  0.460867  1
  O  O18  1  0.944394  0.923300  0.145569  1
