# generated using pymatgen
data_Li5AlO4
_symmetry_space_group_name_H-M   'P 1'
_cell_length_a   4.66955213
_cell_length_b   6.36617935
_cell_length_c   6.48306170
_cell_angle_alpha   90.00000000
_cell_angle_beta   90.00000000
_cell_angle_gamma   90.00000000
_symmetry_Int_Tables_number   1
_chemical_formula_structural   Li5AlO4
_chemical_formula_sum   'Li10 Al2 O8'
_cell_volume   192.72331290
_cell_formula_units_Z   2
loop_
 _symmetry_equiv_pos_site_id
 _symmetry_equiv_pos_as_xyz
  1  'x, y, z'
loop_
 _atom_site_type_symbol
 _atom_site_label
 _atom_site_symmetry_multiplicity
 _atom_site_fract_x
 _atom_site_fract_y
 _atom_site_fract_z
 _atom_site_occupancy
  Li  Li1  1  0.745348  0.488810  0.447547  1
  Li  Li2  1  0.745348  0.011190  0.052453  1
  Li  Li3  1  0.254652  0.988810  0.552453  1
  Li  Li4  1  0.254652  0.511190  0.947547  1
  Li  Li5  1  0.254652  0.511190  0.552453  1
  Li  Li6  1  0.254652  0.988810  0.947547  1
  Li  Li7  1  0.745348  0.011190  0.447547  1
  Li  Li8  1  0.745348  0.488810  0.052453  1
  Li  Li9  1  0.796032  0.250000  0.750000  1
  Li  Li10  1  0.203968  0.750000  0.250000  1
  O  O11  1  0.016580  0.250000  0.481873  1
  O  O12  1  0.016580  0.250000  0.018127  1
  O  O13  1  0.570818  0.985810  0.750000  1
  O  O14  1  0.570818  0.514190  0.750000  1
  O  O15  1  0.429182  0.485810  0.250000  1
  O  O16  1  0.429182  0.014190  0.250000  1
  O  O17  1  0.983420  0.750000  0.981873  1
  O  O18  1  0.983420  0.750000  0.518127  1
  Al  Al19  1  0.224488  0.250000  0.250000  1
  Al  Al20  1  0.775512  0.750000  0.750000  1
