# generated using pymatgen
data_Li4CO4
_symmetry_space_group_name_H-M   'P 1'
_cell_length_a   4.53893132
_cell_length_b   4.47339080
_cell_length_c   4.47339350
_cell_angle_alpha   91.51546713
_cell_angle_beta   85.80988076
_cell_angle_gamma   85.81016070
_symmetry_Int_Tables_number   1
_chemical_formula_structural   Li4CO4
_chemical_formula_sum   'Li4 C1 O4'
_cell_volume   90.29861436
_cell_formula_units_Z   1
loop_
 _symmetry_equiv_pos_site_id
 _symmetry_equiv_pos_as_xyz
  1  'x, y, z'
loop_
 _atom_site_type_symbol
 _atom_site_label
 _atom_site_symmetry_multiplicity
 _atom_site_fract_x
 _atom_site_fract_y
 _atom_site_fract_z
 _atom_site_occupancy
  Li  Li1  1  0.009200  0.545070  0.031048  1
  O  O2  1  0.660942  0.184207  0.184206  1
  Li  Li3  1  0.512196  0.961760  0.496523  1
  O  O4  1  0.313542  0.821549  0.184465  1
  O  O5  1  0.709775  0.810502  0.810502  1
  Li  Li6  1  0.009202  0.031048  0.545071  1
  C  C7  1  0.497835  0.005115  0.005115  1
  Li  Li8  1  0.512195  0.496524  0.961762  1
  O  O9  1  0.313544  0.184464  0.821548  1
