# generated using pymatgen
data_LiNiO2
_symmetry_space_group_name_H-M   'P 1'
_cell_length_a   5.46878800
_cell_length_b   5.46878800
_cell_length_c   5.46878800
_cell_angle_alpha   144.73367320
_cell_angle_beta   151.50578591
_cell_angle_gamma   45.94549535
_symmetry_Int_Tables_number   1
_chemical_formula_structural   LiNiO2
_chemical_formula_sum   'Li1 Ni1 O2'
_cell_volume   44.90518007
_cell_formula_units_Z   1
loop_
 _symmetry_equiv_pos_site_id
 _symmetry_equiv_pos_as_xyz
  1  'x, y, z'
loop_
 _atom_site_type_symbol
 _atom_site_label
 _atom_site_symmetry_multiplicity
 _atom_site_fract_x
 _atom_site_fract_y
 _atom_site_fract_z
 _atom_site_occupancy
  Li  Li1  1  0.272424  0.772426  0.500000  1
  O  O2  1  0.382665  0.382667  0.000001  1
  O  O3  1  0.630753  0.630752  0.999999  1
  Ni  Ni4  1  0.007155  0.507155  0.499998  1
