# generated using pymatgen
data_Li(NiO2)4
_symmetry_space_group_name_H-M   'P 1'
_cell_length_a   10.47654329
_cell_length_b   10.47654456
_cell_length_c   5.27911415
_cell_angle_alpha   31.30039551
_cell_angle_beta   31.30038965
_cell_angle_gamma   30.99345960
_symmetry_Int_Tables_number   1
_chemical_formula_structural   Li(NiO2)4
_chemical_formula_sum   'Li1 Ni4 O8'
_cell_volume   137.95512962
_cell_formula_units_Z   1
loop_
 _symmetry_equiv_pos_site_id
 _symmetry_equiv_pos_as_xyz
  1  'x, y, z'
loop_
 _atom_site_type_symbol
 _atom_site_label
 _atom_site_symmetry_multiplicity
 _atom_site_fract_x
 _atom_site_fract_y
 _atom_site_fract_z
 _atom_site_occupancy
  Li  Li1  1  0.000010  0.000010  0.999791  1
  Ni  Ni2  1  0.251757  0.251757  0.503754  1
  Ni  Ni3  1  0.250166  0.749825  0.500027  1
  Ni  Ni4  1  0.749825  0.250166  0.500027  1
  Ni  Ni5  1  0.748231  0.748231  0.496311  1
  O  O6  1  0.389133  0.389133  0.747575  1
  O  O7  1  0.371985  0.886579  0.792141  1
  O  O8  1  0.886579  0.371985  0.792141  1
  O  O9  1  0.892115  0.892115  0.725652  1
  O  O10  1  0.107578  0.107578  0.276004  1
  O  O11  1  0.113346  0.628034  0.208000  1
  O  O12  1  0.628034  0.113346  0.208000  1
  O  O13  1  0.611246  0.611246  0.250581  1
