# generated using pymatgen
data_Li3(NiO2)4
_symmetry_space_group_name_H-M   'P 1'
_cell_length_a   10.14380041
_cell_length_b   10.14380172
_cell_length_c   5.10479917
_cell_angle_alpha   33.12805792
_cell_angle_beta   33.12804908
_cell_angle_gamma   32.41614391
_symmetry_Int_Tables_number   1
_chemical_formula_structural   Li3(NiO2)4
_chemical_formula_sum   'Li3 Ni4 O8'
_cell_volume   137.77646195
_cell_formula_units_Z   1
loop_
 _symmetry_equiv_pos_site_id
 _symmetry_equiv_pos_as_xyz
  1  'x, y, z'
loop_
 _atom_site_type_symbol
 _atom_site_label
 _atom_site_symmetry_multiplicity
 _atom_site_fract_x
 _atom_site_fract_y
 _atom_site_fract_z
 _atom_site_occupancy
  Li  Li1  1  0.500017  0.000010  0.999957  1
  Li  Li2  1  0.000010  0.500017  0.999957  1
  Li  Li3  1  0.000004  0.000004  0.999989  1
  Ni  Ni4  1  0.251568  0.251568  0.501693  1
  Ni  Ni5  1  0.251616  0.748378  0.500021  1
  Ni  Ni6  1  0.748378  0.251616  0.500021  1
  Ni  Ni7  1  0.748423  0.748423  0.498313  1
  O  O8  1  0.368372  0.368372  0.820265  1
  O  O9  1  0.383769  0.902056  0.713117  1
  O  O10  1  0.902056  0.383769  0.713117  1
  O  O11  1  0.871727  0.871727  0.791784  1
  O  O12  1  0.128275  0.128275  0.208212  1
  O  O13  1  0.097936  0.616219  0.286909  1
  O  O14  1  0.616219  0.097936  0.286909  1
  O  O15  1  0.631630  0.631630  0.179738  1
