# generated using pymatgen
data_LiNiO2
_symmetry_space_group_name_H-M   'P 1'
_cell_length_a   2.84100594
_cell_length_b   5.95496114
_cell_length_c   10.23546353
_cell_angle_alpha   77.72144642
_cell_angle_beta   97.97739946
_cell_angle_gamma   118.49500832
_symmetry_Int_Tables_number   1
_chemical_formula_structural   LiNiO2
_chemical_formula_sum   'Li4 Ni4 O8'
_cell_volume   148.56526598
_cell_formula_units_Z   4
loop_
 _symmetry_equiv_pos_site_id
 _symmetry_equiv_pos_as_xyz
  1  'x, y, z'
loop_
 _atom_site_type_symbol
 _atom_site_label
 _atom_site_symmetry_multiplicity
 _atom_site_fract_x
 _atom_site_fract_y
 _atom_site_fract_z
 _atom_site_occupancy
  Li  Li1  1  0.273165  0.881495  0.783374  1
  Li  Li2  1  0.726801  0.618505  0.216626  1
  Li  Li3  1  0.270535  0.130085  0.281024  1
  Li  Li4  1  0.729340  0.369913  0.718976  1
  O  O5  1  0.371365  0.817059  0.108644  1
  O  O6  1  0.622231  0.423865  0.396873  1
  O  O7  1  0.616660  0.167812  0.897733  1
  O  O8  1  0.377628  0.076135  0.603127  1
  O  O9  1  0.383306  0.332188  0.102267  1
  O  O10  1  0.321666  0.519051  0.605330  1
  O  O11  1  0.678235  0.980949  0.394670  1
  O  O12  1  0.628602  0.682940  0.891356  1
  Ni  Ni13  1  0.996874  0.499095  0.995586  1
  Ni  Ni14  1  0.999911  0.250000  0.500000  1
  Ni  Ni15  1  0.999976  0.750000  0.500000  1
  Ni  Ni16  1  0.003098  0.000903  0.004414  1
