# generated using pymatgen
data_Li11(NiO2)12
_symmetry_space_group_name_H-M   'P 1'
_cell_length_a   20.31724917
_cell_length_b   24.37653724
_cell_length_c   9.73191047
_cell_angle_alpha   15.63944390
_cell_angle_beta   29.10161706
_cell_angle_gamma   19.95059058
_symmetry_Int_Tables_number   1
_chemical_formula_structural   Li11(NiO2)12
_chemical_formula_sum   'Li11 Ni12 O24'
_cell_volume   416.67184235
_cell_formula_units_Z   1
loop_
 _symmetry_equiv_pos_site_id
 _symmetry_equiv_pos_as_xyz
  1  'x, y, z'
loop_
 _atom_site_type_symbol
 _atom_site_label
 _atom_site_symmetry_multiplicity
 _atom_site_fract_x
 _atom_site_fract_y
 _atom_site_fract_z
 _atom_site_occupancy
  Li  Li1  1  0.249789  0.000000  0.000546  1
  Li  Li2  1  0.080148  0.327798  0.020054  1
  Li  Li3  1  0.500000  0.000000  0.000000  1
  Li  Li4  1  0.325093  0.349812  0.975281  1
  Li  Li5  1  0.750211  1.000000  0.999454  1
  Li  Li6  1  0.167155  0.665691  0.001464  1
  Li  Li7  1  0.592053  0.327798  0.996552  1
  Li  Li8  1  0.407947  0.672202  0.003448  1
  Li  Li9  1  0.832845  0.334309  0.998536  1
  Li  Li10  1  0.674907  0.650188  0.024719  1
  Li  Li11  1  0.919852  0.672202  0.979946  1
  Ni  Ni12  1  0.125100  0.000000  0.499809  1
  Ni  Ni13  1  0.376490  0.000000  0.498187  1
  Ni  Ni14  1  0.209302  0.331440  0.504237  1
  Ni  Ni15  1  0.623510  1.000000  0.501813  1
  Ni  Ni16  1  0.042016  0.666618  0.500617  1
  Ni  Ni17  1  0.459257  0.331440  0.501443  1
  Ni  Ni18  1  0.874900  1.000000  0.500191  1
  Ni  Ni19  1  0.291367  0.666618  0.499530  1
  Ni  Ni20  1  0.708633  0.333382  0.500470  1
  Ni  Ni21  1  0.540743  0.668560  0.498557  1
  Ni  Ni22  1  0.957984  0.333382  0.499383  1
  Ni  Ni23  1  0.790698  0.668560  0.495763  1
  O  O24  1  0.063844  1.000000  0.233556  1
  O  O25  1  0.316059  1.000000  0.226720  1
  O  O26  1  0.146926  0.333694  0.234860  1
  O  O27  1  0.554102  0.000000  0.252076  1
  O  O28  1  0.023679  0.337024  0.745186  1
  O  O29  1  0.395861  0.327390  0.252982  1
  O  O30  1  0.796832  1.000000  0.264560  1
  O  O31  1  0.276748  0.327390  0.764848  1
  O  O32  1  0.244353  0.642837  0.261420  1
  O  O33  1  0.639296  0.337024  0.243741  1
  O  O34  1  0.112811  0.642837  0.810071  1
  O  O35  1  0.519379  0.333694  0.764058  1
  O  O36  1  0.480621  0.666306  0.235942  1
  O  O37  1  0.887189  0.357163  0.189929  1
  O  O38  1  0.360704  0.662976  0.756259  1
  O  O39  1  0.755647  0.357163  0.738580  1
  O  O40  1  0.723252  0.672610  0.235152  1
  O  O41  1  0.203168  0.000000  0.735440  1
  O  O42  1  0.604139  0.672610  0.747018  1
  O  O43  1  0.976321  0.662976  0.254814  1
  O  O44  1  0.445898  1.000000  0.747924  1
  O  O45  1  0.853074  0.666306  0.765140  1
  O  O46  1  0.683941  0.000000  0.773280  1
  O  O47  1  0.936156  0.000000  0.766444  1
