# generated using pymatgen
data_Li4CO4
_symmetry_space_group_name_H-M   'P 1'
_cell_length_a   4.68429931
_cell_length_b   4.68429981
_cell_length_c   4.68429941
_cell_angle_alpha   72.76117909
_cell_angle_beta   72.76117925
_cell_angle_gamma   72.76117847
_symmetry_Int_Tables_number   1
_chemical_formula_structural   Li4CO4
_chemical_formula_sum   'Li4 C1 O4'
_cell_volume   91.27584134
_cell_formula_units_Z   1
loop_
 _symmetry_equiv_pos_site_id
 _symmetry_equiv_pos_as_xyz
  1  'x, y, z'
loop_
 _atom_site_type_symbol
 _atom_site_label
 _atom_site_symmetry_multiplicity
 _atom_site_fract_x
 _atom_site_fract_y
 _atom_site_fract_z
 _atom_site_occupancy
  Li  Li1  1  0.946273  0.428764  0.428764  1
  Li  Li2  1  0.428764  0.946273  0.428764  1
  Li  Li3  1  0.428764  0.428764  0.946273  1
  Li  Li4  1  0.817268  0.817268  0.817268  1
  C  C5  1  0.039879  0.039879  0.039879  1
  O  O6  1  0.270687  0.851568  0.851568  1
  O  O7  1  0.173569  0.173569  0.173569  1
  O  O8  1  0.851568  0.270687  0.851568  1
  O  O9  1  0.851568  0.851568  0.270687  1
