# generated using pymatgen
data_LiPO3
_symmetry_space_group_name_H-M   'P 1'
_cell_length_a   5.41133117
_cell_length_b   8.13152441
_cell_length_c   17.30412310
_cell_angle_alpha   90.00000000
_cell_angle_beta   90.00000000
_cell_angle_gamma   99.37435672
_symmetry_Int_Tables_number   1
_chemical_formula_structural   LiPO3
_chemical_formula_sum   'Li12 P12 O36'
_cell_volume   751.25377802
_cell_formula_units_Z   12
loop_
 _symmetry_equiv_pos_site_id
 _symmetry_equiv_pos_as_xyz
  1  'x, y, z'
loop_
 _atom_site_type_symbol
 _atom_site_label
 _atom_site_symmetry_multiplicity
 _atom_site_fract_x
 _atom_site_fract_y
 _atom_site_fract_z
 _atom_site_occupancy
  Li  Li1  1  0.807842  0.725475  0.810289  1
  Li  Li2  1  0.692158  0.774525  0.310289  1
  Li  Li3  1  0.192158  0.274525  0.189711  1
  Li  Li4  1  0.307842  0.225475  0.689711  1
  Li  Li5  1  0.795908  0.871033  0.979000  1
  Li  Li6  1  0.704092  0.628967  0.479000  1
  Li  Li7  1  0.204092  0.128967  0.021000  1
  Li  Li8  1  0.295908  0.371033  0.521000  1
  Li  Li9  1  0.761693  0.937531  0.156594  1
  Li  Li10  1  0.738307  0.562469  0.656594  1
  Li  Li11  1  0.238307  0.062469  0.843406  1
  Li  Li12  1  0.261693  0.437531  0.343406  1
  O  O13  1  0.046498  0.354624  0.433236  1
  O  O14  1  0.453502  0.145376  0.933236  1
  O  O15  1  0.953502  0.645376  0.566764  1
  O  O16  1  0.546498  0.854624  0.066764  1
  O  O17  1  0.126283  0.805961  0.869576  1
  O  O18  1  0.373717  0.694039  0.369576  1
  O  O19  1  0.873717  0.194039  0.130424  1
  O  O20  1  0.626283  0.305961  0.630424  1
  O  O21  1  0.076844  0.246648  0.603496  1
  O  O22  1  0.423156  0.253352  0.103496  1
  O  O23  1  0.923156  0.753352  0.396504  1
  O  O24  1  0.576844  0.746648  0.896504  1
  O  O25  1  0.274616  0.848726  0.491208  1
  O  O26  1  0.225384  0.651274  0.991208  1
  O  O27  1  0.725384  0.151274  0.508792  1
  O  O28  1  0.774616  0.348726  0.008792  1
  O  O29  1  0.217721  0.648017  0.132450  1
  O  O30  1  0.282279  0.851983  0.632450  1
  O  O31  1  0.782279  0.351983  0.867550  1
  O  O32  1  0.717721  0.148017  0.367550  1
  O  O33  1  0.069869  0.467916  0.243605  1
  O  O34  1  0.430131  0.032084  0.743605  1
  O  O35  1  0.930131  0.532084  0.756395  1
  O  O36  1  0.569869  0.967916  0.256395  1
  O  O37  1  0.083080  0.895325  0.059736  1
  O  O38  1  0.416920  0.604675  0.559736  1
  O  O39  1  0.916920  0.104675  0.940264  1
  O  O40  1  0.583080  0.395325  0.440264  1
  O  O41  1  0.120745  0.261323  0.782334  1
  O  O42  1  0.379255  0.238677  0.282334  1
  O  O43  1  0.879255  0.738677  0.217666  1
  O  O44  1  0.620745  0.761323  0.717666  1
  O  O45  1  0.269202  0.992466  0.367943  1
  O  O46  1  0.230798  0.507534  0.867943  1
  O  O47  1  0.730798  0.007534  0.632057  1
  O  O48  1  0.769202  0.492466  0.132057  1
  P  P49  1  0.701998  0.306185  0.098409  1
  P  P50  1  0.798002  0.193815  0.598409  1
  P  P51  1  0.298002  0.693815  0.901591  1
  P  P52  1  0.201998  0.806185  0.401591  1
  P  P53  1  0.774461  0.279694  0.436773  1
  P  P54  1  0.725539  0.220306  0.936773  1
  P  P55  1  0.225539  0.720306  0.563227  1
  P  P56  1  0.274461  0.779694  0.063227  1
  P  P57  1  0.481847  0.089486  0.310696  1
  P  P58  1  0.018153  0.410514  0.810696  1
  P  P59  1  0.518153  0.910514  0.689304  1
  P  P60  1  0.981847  0.589486  0.189304  1
