# generated using pymatgen
data_LiPO3
_symmetry_space_group_name_H-M   'P 1'
_cell_length_a   5.51204773
_cell_length_b   13.30120508
_cell_length_c   16.75621634
_cell_angle_alpha   99.36585948
_cell_angle_beta   90.00000000
_cell_angle_gamma   90.00000000
_symmetry_Int_Tables_number   1
_chemical_formula_structural   LiPO3
_chemical_formula_sum   'Li20 P20 O60'
_cell_volume   1212.13652098
_cell_formula_units_Z   20
loop_
 _symmetry_equiv_pos_site_id
 _symmetry_equiv_pos_as_xyz
  1  'x, y, z'
loop_
 _atom_site_type_symbol
 _atom_site_label
 _atom_site_symmetry_multiplicity
 _atom_site_fract_x
 _atom_site_fract_y
 _atom_site_fract_z
 _atom_site_occupancy
  Li  Li1  1  0.491970  0.202157  0.549548  1
  Li  Li2  1  0.508030  0.702157  0.049548  1
  Li  Li3  1  0.512368  0.322794  0.434414  1
  Li  Li4  1  0.991984  0.512555  0.241555  1
  Li  Li5  1  0.521714  0.941567  0.317634  1
  Li  Li6  1  0.961765  0.512635  0.741564  1
  Li  Li7  1  0.478286  0.441567  0.817634  1
  Li  Li8  1  0.487632  0.822794  0.934414  1
  Li  Li9  1  0.474696  0.821815  0.433773  1
  Li  Li10  1  0.008016  0.012555  0.741555  1
  Li  Li11  1  0.038235  0.012635  0.241564  1
  Li  Li12  1  0.525304  0.321815  0.933773  1
  Li  Li13  1  0.505290  0.581877  0.164804  1
  Li  Li14  1  0.494710  0.081877  0.664804  1
  Li  Li15  1  0.495727  0.943285  0.818896  1
  Li  Li16  1  0.529086  0.702712  0.549994  1
  Li  Li17  1  0.520207  0.083118  0.166265  1
  Li  Li18  1  0.504273  0.443285  0.318896  1
  Li  Li19  1  0.479793  0.583118  0.666265  1
  Li  Li20  1  0.470914  0.202712  0.049994  1
  P  P21  1  0.171901  0.216898  0.808378  1
  P  P22  1  0.188545  0.796001  0.196934  1
  P  P23  1  0.845819  0.888019  0.093104  1
  P  P24  1  0.812683  0.501537  0.500394  1
  P  P25  1  0.809544  0.523627  0.982864  1
  P  P26  1  0.848356  0.137236  0.390251  1
  P  P27  1  0.843683  0.909312  0.574663  1
  P  P28  1  0.825637  0.309185  0.174885  1
  P  P29  1  0.812351  0.730197  0.786432  1
  P  P30  1  0.187317  0.001537  0.000394  1
  P  P31  1  0.174363  0.809185  0.674885  1
  P  P32  1  0.154181  0.388019  0.593104  1
  P  P33  1  0.151644  0.637236  0.890251  1
  P  P34  1  0.828099  0.716898  0.308378  1
  P  P35  1  0.187649  0.230197  0.286432  1
  P  P36  1  0.841177  0.116296  0.908389  1
  P  P37  1  0.811455  0.296001  0.696934  1
  P  P38  1  0.190456  0.023627  0.482864  1
  P  P39  1  0.156317  0.409312  0.074663  1
  P  P40  1  0.158823  0.616296  0.408389  1
  O  O41  1  0.343003  0.720995  0.652408  1
  O  O42  1  0.322124  0.951882  0.418894  1
  O  O43  1  0.943631  0.967599  0.504238  1
  O  O44  1  0.676485  0.570701  0.057806  1
  O  O45  1  0.645263  0.186062  0.946411  1
  O  O46  1  0.743037  0.403798  0.229821  1
  O  O47  1  0.322938  0.955321  0.925722  1
  O  O48  1  0.351160  0.338782  0.036898  1
  O  O49  1  0.918519  0.618378  0.944647  1
  O  O50  1  0.644462  0.809276  0.829425  1
  O  O51  1  0.049909  0.725896  0.843240  1
  O  O52  1  0.784261  0.041575  0.833140  1
  O  O53  1  0.353849  0.715514  0.154529  1
  O  O54  1  0.348156  0.687139  0.944364  1
  O  O55  1  0.648840  0.838782  0.536898  1
  O  O56  1  0.343619  0.303959  0.830991  1
  O  O57  1  0.277248  0.123411  0.258091  1
  O  O58  1  0.796324  0.983120  0.152817  1
  O  O59  1  0.355538  0.309276  0.329425  1
  O  O60  1  0.656997  0.220995  0.152408  1
  O  O61  1  0.924519  0.405958  0.536835  1
  O  O62  1  0.950556  0.800054  0.140251  1
  O  O63  1  0.204312  0.542702  0.830263  1
  O  O64  1  0.323515  0.070701  0.557806  1
  O  O65  1  0.075481  0.905958  0.036835  1
  O  O66  1  0.056369  0.467599  0.004238  1
  O  O67  1  0.922163  0.341020  0.090958  1
  O  O68  1  0.677062  0.455321  0.425722  1
  O  O69  1  0.925244  0.684979  0.392225  1
  O  O70  1  0.215739  0.541575  0.333140  1
  O  O71  1  0.785933  0.984209  0.649682  1
  O  O72  1  0.646151  0.215514  0.654529  1
  O  O73  1  0.214067  0.484209  0.149682  1
  O  O74  1  0.049444  0.300054  0.640251  1
  O  O75  1  0.203676  0.483120  0.652817  1
  O  O76  1  0.074756  0.184979  0.892225  1
  O  O77  1  0.251442  0.122439  0.752703  1
  O  O78  1  0.941726  0.058056  0.978658  1
  O  O79  1  0.079892  0.756836  0.275508  1
  O  O80  1  0.950091  0.225896  0.343240  1
  O  O81  1  0.058274  0.558056  0.478658  1
  O  O82  1  0.078924  0.271830  0.208881  1
  O  O83  1  0.722752  0.623411  0.758091  1
  O  O84  1  0.677876  0.451882  0.918894  1
  O  O85  1  0.651844  0.187139  0.444364  1
  O  O86  1  0.795688  0.042702  0.330263  1
  O  O87  1  0.656381  0.803959  0.330991  1
  O  O88  1  0.317073  0.072590  0.065342  1
  O  O89  1  0.646539  0.837899  0.040335  1
  O  O90  1  0.921076  0.771830  0.708881  1
  O  O91  1  0.920108  0.256836  0.775508  1
  O  O92  1  0.354737  0.686062  0.446411  1
  O  O93  1  0.077837  0.841020  0.590958  1
  O  O94  1  0.682927  0.572590  0.565342  1
  O  O95  1  0.081481  0.118378  0.444647  1
  O  O96  1  0.353461  0.337899  0.540335  1
  O  O97  1  0.719350  0.402668  0.724274  1
  O  O98  1  0.748558  0.622439  0.252703  1
  O  O99  1  0.256963  0.903798  0.729821  1
  O  O100  1  0.280650  0.902668  0.224274  1
