# generated using pymatgen
data_Li4P2O7
_symmetry_space_group_name_H-M   'P 1'
_cell_length_a   5.25963352
_cell_length_b   7.98961662
_cell_length_c   14.11846839
_cell_angle_alpha   90.00000000
_cell_angle_beta   90.00000000
_cell_angle_gamma   90.06635321
_symmetry_Int_Tables_number   1
_chemical_formula_structural   Li4P2O7
_chemical_formula_sum   'Li16 P8 O28'
_cell_volume   593.29231039
_cell_formula_units_Z   4
loop_
 _symmetry_equiv_pos_site_id
 _symmetry_equiv_pos_as_xyz
  1  'x, y, z'
loop_
 _atom_site_type_symbol
 _atom_site_label
 _atom_site_symmetry_multiplicity
 _atom_site_fract_x
 _atom_site_fract_y
 _atom_site_fract_z
 _atom_site_occupancy
  Li  Li1  1  0.197699  0.051468  0.216911  1
  Li  Li2  1  0.803225  0.545775  0.825095  1
  Li  Li3  1  0.820050  0.559052  0.058078  1
  Li  Li4  1  0.329560  0.431608  0.393601  1
  Li  Li5  1  0.320050  0.059052  0.441922  1
  Li  Li6  1  0.697699  0.551468  0.283089  1
  Li  Li7  1  0.196775  0.454225  0.174905  1
  Li  Li8  1  0.170440  0.068392  0.893601  1
  Li  Li9  1  0.179950  0.440948  0.941922  1
  Li  Li10  1  0.696775  0.954225  0.325095  1
  Li  Li11  1  0.670440  0.568392  0.606399  1
  Li  Li12  1  0.302301  0.448532  0.716911  1
  Li  Li13  1  0.829560  0.931608  0.106399  1
  Li  Li14  1  0.303225  0.045775  0.674905  1
  Li  Li15  1  0.802301  0.948532  0.783089  1
  Li  Li16  1  0.679950  0.940948  0.558078  1
  P  P17  1  0.672952  0.236656  0.948812  1
  P  P18  1  0.827048  0.263344  0.448812  1
  P  P19  1  0.818389  0.261457  0.666463  1
  P  P20  1  0.181611  0.738543  0.333537  1
  P  P21  1  0.327048  0.763344  0.051188  1
  P  P22  1  0.172952  0.736656  0.551188  1
  P  P23  1  0.681611  0.238543  0.166463  1
  P  P24  1  0.318389  0.761457  0.833537  1
  O  O25  1  0.887626  0.746288  0.569271  1
  O  O26  1  0.683237  0.403799  0.719655  1
  O  O27  1  0.112374  0.253712  0.430729  1
  O  O28  1  0.188150  0.893403  0.110005  1
  O  O29  1  0.316763  0.596201  0.280345  1
  O  O30  1  0.213512  0.666006  0.442282  1
  O  O31  1  0.816763  0.096201  0.219655  1
  O  O32  1  0.600567  0.748193  0.810780  1
  O  O33  1  0.399433  0.251807  0.189220  1
  O  O34  1  0.311850  0.606597  0.610005  1
  O  O35  1  0.786488  0.333994  0.557718  1
  O  O36  1  0.181830  0.591193  0.829153  1
  O  O37  1  0.199744  0.589231  0.053319  1
  O  O38  1  0.688150  0.393403  0.389995  1
  O  O39  1  0.800256  0.410769  0.946681  1
  O  O40  1  0.811850  0.106597  0.889995  1
  O  O41  1  0.318170  0.908807  0.329153  1
  O  O42  1  0.818170  0.408807  0.170847  1
  O  O43  1  0.681830  0.091193  0.670847  1
  O  O44  1  0.612374  0.753712  0.069271  1
  O  O45  1  0.699744  0.089231  0.446681  1
  O  O46  1  0.387626  0.246288  0.930729  1
  O  O47  1  0.899433  0.751807  0.310780  1
  O  O48  1  0.183237  0.903799  0.780345  1
  O  O49  1  0.300256  0.910769  0.553319  1
  O  O50  1  0.286488  0.833994  0.942282  1
  O  O51  1  0.713512  0.166006  0.057718  1
  O  O52  1  0.100567  0.248193  0.689220  1
