# generated using pymatgen
data_Li4P2O7
_symmetry_space_group_name_H-M   'P 1'
_cell_length_a   10.64925393
_cell_length_b   7.45139298
_cell_length_c   5.58059774
_cell_angle_alpha   129.38240385
_cell_angle_beta   71.47715599
_cell_angle_gamma   115.83354064
_symmetry_Int_Tables_number   1
_chemical_formula_structural   Li4P2O7
_chemical_formula_sum   'Li8 P4 O14'
_cell_volume   307.52976534
_cell_formula_units_Z   2
loop_
 _symmetry_equiv_pos_site_id
 _symmetry_equiv_pos_as_xyz
  1  'x, y, z'
loop_
 _atom_site_type_symbol
 _atom_site_label
 _atom_site_symmetry_multiplicity
 _atom_site_fract_x
 _atom_site_fract_y
 _atom_site_fract_z
 _atom_site_occupancy
  Li  Li1  1  0.192764  0.295434  0.305327  1
  Li  Li2  1  0.807236  0.704566  0.694673  1
  Li  Li3  1  0.421446  0.107230  0.282040  1
  Li  Li4  1  0.578554  0.892770  0.717960  1
  Li  Li5  1  0.304517  0.543177  0.947858  1
  Li  Li6  1  0.695483  0.456823  0.052142  1
  Li  Li7  1  0.000423  0.312551  0.010466  1
  Li  Li8  1  -0.000423  0.687449  0.989534  1
  P  P9  1  0.131364  0.842852  0.541623  1
  P  P10  1  0.868636  0.157148  0.458377  1
  P  P11  1  0.425828  0.205562  0.813344  1
  P  P12  1  0.574172  0.794438  0.186656  1
  O  O13  1  0.261538  0.897696  0.673906  1
  O  O14  1  0.738462  0.102304  0.326094  1
  O  O15  1  0.134006  0.669454  0.182683  1
  O  O16  1  0.865994  0.330546  0.817317  1
  O  O17  1  0.247133  0.223759  0.519762  1
  O  O18  1  0.752867  0.776241  0.480238  1
  O  O19  1  0.997516  0.757150  0.697617  1
  O  O20  1  0.002484  0.242850  0.302383  1
  O  O21  1  0.125102  0.103451  0.652230  1
  O  O22  1  0.874898  0.896549  0.347770  1
  O  O23  1  0.508699  0.177569  0.969995  1
  O  O24  1  0.491301  0.822431  0.030005  1
  O  O25  1  0.345090  0.386298  0.081534  1
  O  O26  1  0.654910  0.613702  0.918466  1
