# generated using pymatgen
data_Li4P2O7
_symmetry_space_group_name_H-M   'P 1'
_cell_length_a   8.59658396
_cell_length_b   5.30050306
_cell_length_c   13.34537372
_cell_angle_alpha   90.00000000
_cell_angle_beta   104.46636473
_cell_angle_gamma   90.00000000
_symmetry_Int_Tables_number   1
_chemical_formula_structural   Li4P2O7
_chemical_formula_sum   'Li16 P8 O28'
_cell_volume   588.81814539
_cell_formula_units_Z   4
loop_
 _symmetry_equiv_pos_site_id
 _symmetry_equiv_pos_as_xyz
  1  'x, y, z'
loop_
 _atom_site_type_symbol
 _atom_site_label
 _atom_site_symmetry_multiplicity
 _atom_site_fract_x
 _atom_site_fract_y
 _atom_site_fract_z
 _atom_site_occupancy
  Li  Li1  1  0.752769  0.680375  0.309210  1
  Li  Li2  1  0.252769  0.819625  0.809210  1
  Li  Li3  1  0.247231  0.319625  0.690790  1
  Li  Li4  1  0.747231  0.180375  0.190790  1
  Li  Li5  1  0.470317  0.658147  0.419341  1
  Li  Li6  1  0.970317  0.841853  0.919341  1
  Li  Li7  1  0.529683  0.341853  0.580659  1
  Li  Li8  1  0.029683  0.158147  0.080659  1
  Li  Li9  1  0.348039  0.865939  0.233689  1
  Li  Li10  1  0.848039  0.634061  0.733689  1
  Li  Li11  1  0.651961  0.134060  0.766311  1
  Li  Li12  1  0.151961  0.365939  0.266311  1
  Li  Li13  1  0.957526  0.312286  0.418123  1
  Li  Li14  1  0.457526  0.187714  0.918123  1
  Li  Li15  1  0.042474  0.687714  0.581877  1
  Li  Li16  1  0.542474  0.812286  0.081877  1
  P  P17  1  0.375545  0.344012  0.110362  1
  P  P18  1  0.875545  0.155988  0.610362  1
  P  P19  1  0.624455  0.655988  0.889638  1
  P  P20  1  0.124455  0.844012  0.389638  1
  P  P21  1  0.637924  0.155396  0.393136  1
  P  P22  1  0.137924  0.344604  0.893136  1
  P  P23  1  0.362076  0.844604  0.606864  1
  P  P24  1  0.862076  0.655396  0.106864  1
  O  O25  1  0.514197  0.302236  0.432809  1
  O  O26  1  0.014197  0.197764  0.932809  1
  O  O27  1  0.485803  0.697764  0.567191  1
  O  O28  1  0.985803  0.802236  0.067191  1
  O  O29  1  0.577095  0.900877  0.343262  1
  O  O30  1  0.077095  0.599123  0.843262  1
  O  O31  1  0.422905  0.099123  0.656738  1
  O  O32  1  0.922905  0.400877  0.156738  1
  O  O33  1  0.725251  0.310726  0.326311  1
  O  O34  1  0.225251  0.189274  0.826311  1
  O  O35  1  0.274749  0.689274  0.673689  1
  O  O36  1  0.774749  0.810726  0.173689  1
  O  O37  1  0.783048  0.075631  0.492257  1
  O  O38  1  0.283048  0.424369  0.992257  1
  O  O39  1  0.216952  0.924369  0.507743  1
  O  O40  1  0.716952  0.575631  0.007743  1
  O  O41  1  0.986978  0.674700  0.405168  1
  O  O42  1  0.486978  0.825300  0.905168  1
  O  O43  1  0.013022  0.325300  0.594832  1
  O  O44  1  0.513022  0.174700  0.094832  1
  O  O45  1  0.070769  0.098307  0.340286  1
  O  O46  1  0.570769  0.401693  0.840286  1
  O  O47  1  0.929231  0.901693  0.659714  1
  O  O48  1  0.429231  0.598307  0.159714  1
  O  O49  1  0.241039  0.701663  0.338604  1
  O  O50  1  0.741039  0.798337  0.838604  1
  O  O51  1  0.758961  0.298337  0.661396  1
  O  O52  1  0.258961  0.201663  0.161396  1
