# generated using pymatgen
data_Li2PbO3
_symmetry_space_group_name_H-M   'P 1'
_cell_length_a   6.17052312
_cell_length_b   6.17052400
_cell_length_c   7.09926216
_cell_angle_alpha   92.57898408
_cell_angle_beta   92.57898595
_cell_angle_gamma   103.05434454
_symmetry_Int_Tables_number   1
_chemical_formula_structural   Li2PbO3
_chemical_formula_sum   'Li8 Pb4 O12'
_cell_volume   262.63161777
_cell_formula_units_Z   4
loop_
 _symmetry_equiv_pos_site_id
 _symmetry_equiv_pos_as_xyz
  1  'x, y, z'
loop_
 _atom_site_type_symbol
 _atom_site_label
 _atom_site_symmetry_multiplicity
 _atom_site_fract_x
 _atom_site_fract_y
 _atom_site_fract_z
 _atom_site_occupancy
  Li  Li1  1  0.270242  0.164370  0.998642  1
  Li  Li2  1  0.835630  0.729758  0.501358  1
  Li  Li3  1  0.500000  0.000000  0.500000  1
  Li  Li4  1  0.070435  0.929565  0.250000  1
  Li  Li5  1  0.000000  0.500000  0.000000  1
  Li  Li6  1  0.164370  0.270242  0.498642  1
  Li  Li7  1  0.729758  0.835630  0.001358  1
  Li  Li8  1  0.929565  0.070435  0.750000  1
  Pb  Pb9  1  0.607713  0.392287  0.750000  1
  Pb  Pb10  1  0.249670  0.750330  0.750000  1
  Pb  Pb11  1  0.750330  0.249670  0.250000  1
  Pb  Pb12  1  0.392287  0.607713  0.250000  1
  O  O13  1  0.903761  0.715443  0.795504  1
  O  O14  1  0.284557  0.096239  0.704496  1
  O  O15  1  0.303232  0.463506  0.893992  1
  O  O16  1  0.536494  0.696768  0.606008  1
  O  O17  1  0.729081  0.148708  0.930529  1
  O  O18  1  0.851292  0.270919  0.569471  1
  O  O19  1  0.148708  0.729081  0.430529  1
  O  O20  1  0.270919  0.851292  0.069471  1
  O  O21  1  0.463506  0.303232  0.393992  1
  O  O22  1  0.696768  0.536494  0.106008  1
  O  O23  1  0.715443  0.903761  0.295504  1
  O  O24  1  0.096239  0.284557  0.204496  1
