# generated using pymatgen
data_K2S5
_symmetry_space_group_name_H-M   'P 1'
_cell_length_a   6.81799749
_cell_length_b   8.71949362
_cell_length_c   14.54831993
_cell_angle_alpha   90.00000000
_cell_angle_beta   90.00000000
_cell_angle_gamma   90.00000000
_symmetry_Int_Tables_number   1
_chemical_formula_structural   K2S5
_chemical_formula_sum   'K8 S20'
_cell_volume   864.89013640
_cell_formula_units_Z   4
loop_
 _symmetry_equiv_pos_site_id
 _symmetry_equiv_pos_as_xyz
  1  'x, y, z'
loop_
 _atom_site_type_symbol
 _atom_site_label
 _atom_site_symmetry_multiplicity
 _atom_site_fract_x
 _atom_site_fract_y
 _atom_site_fract_z
 _atom_site_occupancy
  K  K1  1  0.872883  0.666148  0.892946  1
  K  K2  1  0.050898  0.970113  0.305698  1
  K  K3  1  0.449102  0.029887  0.805698  1
  K  K4  1  0.627117  0.333852  0.392946  1
  K  K5  1  0.949102  0.470113  0.194302  1
  K  K6  1  0.372883  0.833852  0.107054  1
  K  K7  1  0.127117  0.166148  0.607054  1
  K  K8  1  0.550898  0.529887  0.694302  1
  S  S9  1  0.885476  0.644917  0.396786  1
  S  S10  1  0.147296  0.552265  0.428382  1
  S  S11  1  0.614524  0.355083  0.896786  1
  S  S12  1  0.114524  0.144917  0.103214  1
  S  S13  1  0.916764  0.983474  0.781325  1
  S  S14  1  0.153747  0.329141  0.391827  1
  S  S15  1  0.385476  0.855083  0.603214  1
  S  S16  1  0.352704  0.447735  0.928382  1
  S  S17  1  0.121188  0.335428  0.823143  1
  S  S18  1  0.653747  0.170859  0.608173  1
  S  S19  1  0.621188  0.164572  0.176857  1
  S  S20  1  0.083236  0.483474  0.718675  1
  S  S21  1  0.416764  0.516526  0.218675  1
  S  S22  1  0.378812  0.664572  0.323143  1
  S  S23  1  0.583236  0.016526  0.281325  1
  S  S24  1  0.346253  0.670859  0.891827  1
  S  S25  1  0.647296  0.947735  0.571618  1
  S  S26  1  0.878812  0.835428  0.676857  1
  S  S27  1  0.846253  0.829141  0.108173  1
  S  S28  1  0.852704  0.052265  0.071618  1
