# generated using pymatgen
data_Li4CO4
_symmetry_space_group_name_H-M   'P 1'
_cell_length_a   4.38163090
_cell_length_b   5.07306875
_cell_length_c   5.07717962
_cell_angle_alpha   76.67593300
_cell_angle_beta   64.43780530
_cell_angle_gamma   64.41603622
_symmetry_Int_Tables_number   1
_chemical_formula_structural   Li4CO4
_chemical_formula_sum   'Li4 C1 O4'
_cell_volume   91.69310280
_cell_formula_units_Z   1
loop_
 _symmetry_equiv_pos_site_id
 _symmetry_equiv_pos_as_xyz
  1  'x, y, z'
loop_
 _atom_site_type_symbol
 _atom_site_label
 _atom_site_symmetry_multiplicity
 _atom_site_fract_x
 _atom_site_fract_y
 _atom_site_fract_z
 _atom_site_occupancy
  Li  Li1  1  0.477842  0.155888  0.532577  1
  O  O2  1  0.267989  0.500436  0.250397  1
  Li  Li3  1  0.166323  0.844086  0.467442  1
  O  O4  1  0.642578  0.750313  0.486894  1
  C  C5  1  0.952526  0.499979  0.499977  1
  O  O6  1  0.018788  0.499597  0.749614  1
  Li  Li7  1  0.405230  0.512358  0.840280  1
  Li  Li8  1  0.757842  0.487703  0.159728  1
  O  O9  1  0.879882  0.249640  0.513090  1
