# generated using pymatgen
data_Li2PdO3
_symmetry_space_group_name_H-M   'P 1'
_cell_length_a   5.20071869
_cell_length_b   5.19563656
_cell_length_c   31.15300481
_cell_angle_alpha   119.24482860
_cell_angle_beta   100.29628762
_cell_angle_gamma   100.44628236
_symmetry_Int_Tables_number   1
_chemical_formula_structural   Li2PdO3
_chemical_formula_sum   'Li24 Pd12 O36'
_cell_volume   686.37323752
_cell_formula_units_Z   12
loop_
 _symmetry_equiv_pos_site_id
 _symmetry_equiv_pos_as_xyz
  1  'x, y, z'
loop_
 _atom_site_type_symbol
 _atom_site_label
 _atom_site_symmetry_multiplicity
 _atom_site_fract_x
 _atom_site_fract_y
 _atom_site_fract_z
 _atom_site_occupancy
  Li  Li1  1  0.013654  0.305501  0.940378  1
  Li  Li2  1  0.006411  0.013851  0.838576  1
  Li  Li3  1  1.000019  0.005516  0.668441  1
  Li  Li4  1  0.509254  0.869692  0.867206  1
  Li  Li5  1  0.490508  0.176990  0.971753  1
  Li  Li6  1  0.520364  0.463626  0.914423  1
  Li  Li7  1  0.000555  0.005133  0.501457  1
  Li  Li8  1  0.498867  0.854789  0.698914  1
  Li  Li9  1  0.505915  0.178450  0.811667  1
  Li  Li10  1  0.514399  0.515093  0.753883  1
  Li  Li11  1  0.996548  0.325056  0.274178  1
  Li  Li12  1  0.493333  0.854828  0.531699  1
  Li  Li13  1  0.496005  0.183414  0.643547  1
  Li  Li14  1  0.512661  0.514930  0.588268  1
  Li  Li15  1  -0.005618  0.352772  0.110702  1
  Li  Li16  1  0.493517  0.793196  0.355189  1
  Li  Li17  1  0.504036  0.175613  0.477293  1
  Li  Li18  1  0.502817  0.531719  0.420311  1
  Li  Li19  1  0.477410  0.814436  0.185841  1
  Li  Li20  1  0.497175  0.146365  0.296982  1
  Li  Li21  1  0.504874  0.468848  0.242660  1
  Li  Li22  1  0.467470  0.502604  0.081743  1
  Li  Li23  1  0.479006  0.144642  0.135784  1
  Li  Li24  1  0.014590  0.667466  0.055710  1
  O  O25  1  0.247369  0.776579  0.962990  1
  O  O26  1  0.254553  0.063688  0.902687  1
  O  O27  1  0.241306  0.425871  0.846353  1
  O  O28  1  0.238421  0.725498  0.787451  1
  O  O29  1  0.236722  0.078377  0.737876  1
  O  O30  1  0.234918  0.426157  0.679180  1
  O  O31  1  0.234543  0.731130  0.621503  1
  O  O32  1  0.233340  0.078985  0.571243  1
  O  O33  1  0.230379  0.429017  0.513058  1
  O  O34  1  0.234109  0.736703  0.456199  1
  O  O35  1  0.774377  0.894626  0.930377  1
  O  O36  1  0.751263  0.617994  0.990727  1
  O  O37  1  0.233578  0.414871  0.349270  1
  O  O38  1  0.229223  0.083740  0.402810  1
  O  O39  1  0.236740  0.770689  0.292060  1
  O  O40  1  0.765895  0.260013  0.875915  1
  O  O41  1  0.774385  0.910972  0.761626  1
  O  O42  1  0.780545  0.566443  0.820746  1
  O  O43  1  0.235188  0.071538  0.231676  1
  O  O44  1  0.225035  0.417991  0.180833  1
  O  O45  1  0.223992  0.764658  0.125700  1
  O  O46  1  0.761760  0.263296  0.710845  1
  O  O47  1  0.769101  0.914971  0.594959  1
  O  O48  1  0.768851  0.567336  0.652098  1
  O  O49  1  0.260282  0.079968  0.066346  1
  O  O50  1  0.229529  0.420541  0.012320  1
  O  O51  1  0.758304  0.264098  0.543906  1
  O  O52  1  0.764475  0.917947  0.428124  1
  O  O53  1  0.763182  0.565892  0.485424  1
  O  O54  1  0.769842  0.249610  0.375170  1
  O  O55  1  0.769366  0.905692  0.264636  1
  O  O56  1  0.766766  0.595270  0.321384  1
  O  O57  1  0.765381  0.263445  0.206986  1
  O  O58  1  0.705182  0.905576  0.099403  1
  O  O59  1  0.764198  0.606900  0.155889  1
  O  O60  1  0.752871  0.214958  0.038739  1
  Pd  Pd61  1  1.002820  0.664113  0.722050  1
  Pd  Pd62  1  1.005906  0.329714  0.778009  1
  Pd  Pd63  1  0.998334  0.666923  0.555671  1
  Pd  Pd64  1  1.000114  0.331999  0.611072  1
  Pd  Pd65  1  -0.000662  0.665682  0.388640  1
  Pd  Pd66  1  0.997603  0.335870  0.445361  1
  Pd  Pd67  1  0.001550  0.996436  0.331931  1
  Pd  Pd68  1  0.999598  0.668193  0.221113  1
  Pd  Pd69  1  -0.005275  0.999283  0.163981  1
  Pd  Pd70  1  0.009824  0.661367  0.889040  1
  Pd  Pd71  1  0.004515  0.004481  0.000833  1
  Pd  Pd72  1  0.506927  0.830367  0.029184  1
