# generated using pymatgen
data_K2Ga3
_symmetry_space_group_name_H-M   'P 1'
_cell_length_a   6.21471724
_cell_length_b   6.21471700
_cell_length_c   8.67596071
_cell_angle_alpha   110.98707621
_cell_angle_beta   110.98707539
_cell_angle_gamma   89.99999445
_symmetry_Int_Tables_number   1
_chemical_formula_structural   K2Ga3
_chemical_formula_sum   'K4 Ga6'
_cell_volume   288.92505911
_cell_formula_units_Z   2
loop_
 _symmetry_equiv_pos_site_id
 _symmetry_equiv_pos_as_xyz
  1  'x, y, z'
loop_
 _atom_site_type_symbol
 _atom_site_label
 _atom_site_symmetry_multiplicity
 _atom_site_fract_x
 _atom_site_fract_y
 _atom_site_fract_z
 _atom_site_occupancy
  K  K1  1  0.390354  0.390354  0.780708  1
  K  K2  1  0.250000  0.750000  0.500000  1
  K  K3  1  0.609646  0.609646  0.219292  1
  K  K4  1  0.750000  0.250000  0.500000  1
  Ga  Ga5  1  0.000000  0.294309  0.000000  1
  Ga  Ga6  1  0.139235  0.139235  0.278469  1
  Ga  Ga7  1  0.294309  0.000000  0.000000  1
  Ga  Ga8  1  1.000000  0.705691  0.000000  1
  Ga  Ga9  1  0.860765  0.860765  0.721530  1
  Ga  Ga10  1  0.705691  1.000000  0.000000  1
