# generated using pymatgen
data_Li4CO4
_symmetry_space_group_name_H-M   'P 1'
_cell_length_a   4.18353394
_cell_length_b   4.18353391
_cell_length_c   4.18353671
_cell_angle_alpha   91.62466739
_cell_angle_beta   91.62466756
_cell_angle_gamma   91.62472868
_symmetry_Int_Tables_number   1
_chemical_formula_structural   Li4CO4
_chemical_formula_sum   'Li4 C1 O4'
_cell_volume   73.13006422
_cell_formula_units_Z   1
loop_
 _symmetry_equiv_pos_site_id
 _symmetry_equiv_pos_as_xyz
  1  'x, y, z'
loop_
 _atom_site_type_symbol
 _atom_site_label
 _atom_site_symmetry_multiplicity
 _atom_site_fract_x
 _atom_site_fract_y
 _atom_site_fract_z
 _atom_site_occupancy
  Li  Li1  1  0.231883  0.231883  0.231883  1
  O  O2  1  0.320562  0.710315  0.320563  1
  O  O3  1  0.724666  0.724666  0.724666  1
  Li  Li4  1  0.775322  0.775322  0.205627  1
  O  O5  1  0.320562  0.320562  0.710315  1
  Li  Li6  1  0.775323  0.205628  0.775322  1
  Li  Li7  1  0.205627  0.775323  0.775322  1
  C  C8  1  0.519100  0.519100  0.519100  1
  O  O9  1  0.710315  0.320562  0.320562  1
