# generated using pymatgen
data_Li2PtO3
_symmetry_space_group_name_H-M   'P 1'
_cell_length_a   30.88269090
_cell_length_b   5.26993495
_cell_length_c   5.26993524
_cell_angle_alpha   119.93208783
_cell_angle_beta   99.85500387
_cell_angle_gamma   99.85500551
_symmetry_Int_Tables_number   1
_chemical_formula_structural   Li2PtO3
_chemical_formula_sum   'Li24 Pt12 O36'
_cell_volume   698.47206768
_cell_formula_units_Z   12
loop_
 _symmetry_equiv_pos_site_id
 _symmetry_equiv_pos_as_xyz
  1  'x, y, z'
loop_
 _atom_site_type_symbol
 _atom_site_label
 _atom_site_symmetry_multiplicity
 _atom_site_fract_x
 _atom_site_fract_y
 _atom_site_fract_z
 _atom_site_occupancy
  Li  Li1  1  1.000000  0.333268  0.666732  1
  Li  Li2  1  0.083176  0.829250  0.161231  1
  Li  Li3  1  0.083436  0.502343  0.504427  1
  Li  Li4  1  0.083130  0.166266  0.831935  1
  Li  Li5  1  0.166583  0.000570  0.000212  1
  Li  Li6  1  0.249998  0.835358  0.164217  1
  Li  Li7  1  0.249900  0.499351  0.499152  1
  Li  Li8  1  0.249953  0.164444  0.835873  1
  Li  Li9  1  0.333323  -0.000023  -0.000044  1
  Li  Li10  1  0.416666  0.835884  0.164111  1
  Li  Li11  1  0.416665  0.500032  0.500009  1
  Li  Li12  1  0.416667  0.164115  0.835862  1
  Li  Li13  1  0.500000  0.000007  0.999993  1
  Li  Li14  1  0.583333  0.164138  0.835885  1
  Li  Li15  1  0.583335  0.499991  0.499968  1
  Li  Li16  1  0.583334  0.835889  0.164116  1
  Li  Li17  1  0.666677  1.000044  1.000023  1
  Li  Li18  1  0.750047  0.164127  0.835556  1
  Li  Li19  1  0.750100  0.500848  0.500649  1
  Li  Li20  1  0.750002  0.835783  0.164642  1
  Li  Li21  1  0.833417  0.999788  0.999430  1
  Li  Li22  1  0.916564  0.495573  0.497657  1
  Li  Li23  1  0.916824  0.838769  0.170750  1
  Li  Li24  1  0.916870  0.168065  0.833734  1
  O  O25  1  0.039193  0.759796  0.745835  1
  O  O26  1  0.038667  0.063626  0.397360  1
  O  O27  1  0.038737  0.411228  0.091578  1
  O  O28  1  0.127410  0.573643  0.921547  1
  O  O29  1  0.127913  0.922353  0.575114  1
  O  O30  1  0.127821  0.269298  0.269533  1
  O  O31  1  0.205868  0.730591  0.730144  1
  O  O32  1  0.205332  0.077738  0.424857  1
  O  O33  1  0.205389  0.424593  0.077429  1
  O  O34  1  0.294609  0.575434  0.922978  1
  O  O35  1  0.294605  0.922997  0.575372  1
  O  O36  1  0.294011  0.268970  0.268988  1
  O  O37  1  0.372644  0.730914  0.730902  1
  O  O38  1  0.372034  0.077053  0.424684  1
  O  O39  1  0.372035  0.424693  0.077054  1
  O  O40  1  0.461290  0.575372  0.922959  1
  O  O41  1  0.461291  0.922977  0.575357  1
  O  O42  1  0.460683  0.269094  0.269077  1
  O  O43  1  0.539317  0.730923  0.730906  1
  O  O44  1  0.538710  0.077041  0.424628  1
  O  O45  1  0.538709  0.424643  0.077023  1
  O  O46  1  0.627965  0.922946  0.575307  1
  O  O47  1  0.627966  0.575316  0.922947  1
  O  O48  1  0.627356  0.269098  0.269086  1
  O  O49  1  0.705989  0.731012  0.731030  1
  O  O50  1  0.705395  0.424628  0.077003  1
  O  O51  1  0.705391  0.077022  0.424566  1
  O  O52  1  0.794611  0.922571  0.575407  1
  O  O53  1  0.794668  0.575143  0.922262  1
  O  O54  1  0.794132  0.269856  0.269409  1
  O  O55  1  0.872179  0.730467  0.730702  1
  O  O56  1  0.872590  0.078453  0.426358  1
  O  O57  1  0.872087  0.424886  0.077647  1
  O  O58  1  0.961333  0.602640  0.936374  1
  O  O59  1  0.961263  0.908422  0.588772  1
  O  O60  1  0.960807  0.254165  0.240204  1
  Pt  Pt61  1  0.000000  0.666580  0.333420  1
  Pt  Pt62  1  0.000000  1.000067  -0.000067  1
  Pt  Pt63  1  0.166624  0.333024  0.666442  1
  Pt  Pt64  1  0.166623  0.666274  0.333014  1
  Pt  Pt65  1  0.333320  0.333373  0.666631  1
  Pt  Pt66  1  0.333320  0.666633  0.333359  1
  Pt  Pt67  1  0.500000  0.333367  0.666633  1
  Pt  Pt68  1  0.500000  0.666650  0.333350  1
  Pt  Pt69  1  0.666680  0.333369  0.666627  1
  Pt  Pt70  1  0.666680  0.666641  0.333367  1
  Pt  Pt71  1  0.833376  0.333558  0.666976  1
  Pt  Pt72  1  0.833377  0.666986  0.333726  1
