# generated using pymatgen
data_RbLi2O3
_symmetry_space_group_name_H-M   'P 1'
_cell_length_a   5.75077683
_cell_length_b   6.07023934
_cell_length_c   6.08802936
_cell_angle_alpha   110.71937342
_cell_angle_beta   90.00000000
_cell_angle_gamma   90.00000000
_symmetry_Int_Tables_number   1
_chemical_formula_structural   RbLi2O3
_chemical_formula_sum   'Rb2 Li4 O6'
_cell_volume   198.77939206
_cell_formula_units_Z   2
loop_
 _symmetry_equiv_pos_site_id
 _symmetry_equiv_pos_as_xyz
  1  'x, y, z'
loop_
 _atom_site_type_symbol
 _atom_site_label
 _atom_site_symmetry_multiplicity
 _atom_site_fract_x
 _atom_site_fract_y
 _atom_site_fract_z
 _atom_site_occupancy
  Rb  Rb1  1  0.750000  0.844484  0.721620  1
  Rb  Rb2  1  0.250000  0.155516  0.278380  1
  Li  Li3  1  0.493294  0.349227  0.814574  1
  Li  Li4  1  0.993294  0.650773  0.185426  1
  Li  Li5  1  0.506706  0.650773  0.185426  1
  Li  Li6  1  0.006706  0.349227  0.814574  1
  O  O7  1  0.750000  0.429604  0.031440  1
  O  O8  1  0.250000  0.570396  0.968560  1
  O  O9  1  0.750000  0.868630  0.202094  1
  O  O10  1  0.250000  0.131370  0.797906  1
  O  O11  1  0.750000  0.333727  0.615512  1
  O  O12  1  0.250000  0.666273  0.384488  1
