# generated using pymatgen
data_Li(ReO3)5
_symmetry_space_group_name_H-M   'P 1'
_cell_length_a   6.48535960
_cell_length_b   32.41944121
_cell_length_c   12.41933672
_cell_angle_alpha   29.49242665
_cell_angle_beta   121.40135965
_cell_angle_gamma   109.31698939
_symmetry_Int_Tables_number   1
_chemical_formula_structural   Li(ReO3)5
_chemical_formula_sum   'Li4 Re20 O60'
_cell_volume   1049.39562826
_cell_formula_units_Z   4
loop_
 _symmetry_equiv_pos_site_id
 _symmetry_equiv_pos_as_xyz
  1  'x, y, z'
loop_
 _atom_site_type_symbol
 _atom_site_label
 _atom_site_symmetry_multiplicity
 _atom_site_fract_x
 _atom_site_fract_y
 _atom_site_fract_z
 _atom_site_occupancy
  Li  Li1  1  0.499081  0.900260  0.999201  1
  Li  Li2  1  0.499219  0.400177  0.499386  1
  Li  Li3  1  0.500919  0.699740  0.000799  1
  Li  Li4  1  0.500781  0.199823  0.500614  1
  Re  Re5  1  0.000892  0.899863  0.999976  1
  Re  Re6  1  0.500358  0.901048  0.497061  1
  Re  Re7  1  0.996346  0.000497  0.496107  1
  Re  Re8  1  0.499642  0.698952  0.502939  1
  Re  Re9  1  0.999108  0.700137  0.000024  1
  Re  Re10  1  0.000000  0.800000  0.500000  1
  Re  Re11  1  0.995711  0.500355  0.997469  1
  Re  Re12  1  0.500895  0.500121  0.502516  1
  Re  Re13  1  0.500000  0.800000  0.000000  1
  Re  Re14  1  0.003654  0.599503  0.503893  1
  Re  Re15  1  0.500000  0.300000  0.500000  1
  Re  Re16  1  0.499185  0.600803  0.996553  1
  Re  Re17  1  0.001154  0.399985  0.500179  1
  Re  Re18  1  0.499105  0.099879  0.497484  1
  Re  Re19  1  0.004289  0.099645  0.002531  1
  Re  Re20  1  0.500150  0.401303  0.997693  1
  Re  Re21  1  0.998846  0.200015  0.499821  1
  Re  Re22  1  0.499850  0.198697  0.002307  1
  Re  Re23  1  0.000000  0.300000  0.000000  1
  Re  Re24  1  0.500815  0.999197  0.003447  1
  O  O25  1  0.078839  0.940507  0.791673  1
  O  O26  1  0.217126  0.898941  0.720054  1
  O  O27  1  0.078050  0.740298  0.792501  1
  O  O28  1  0.216459  0.987241  0.279874  1
  O  O29  1  0.215477  0.699390  0.718717  1
  O  O30  1  0.717101  0.869932  0.933149  1
  O  O31  1  0.505737  0.825758  0.792332  1
  O  O32  1  0.063047  0.542135  0.785082  1
  O  O33  1  0.281517  0.843602  0.499097  1
  O  O34  1  0.719329  0.955393  0.503176  1
  O  O35  1  0.215275  0.787309  0.280067  1
  O  O36  1  0.216387  0.499260  0.720507  1
  O  O37  1  0.281291  0.930356  0.065446  1
  O  O38  1  0.495203  0.969705  0.214877  1
  O  O39  1  0.504797  0.630294  0.785123  1
  O  O40  1  0.718709  0.669644  0.934554  1
  O  O41  1  0.280671  0.644607  0.496824  1
  O  O42  1  0.063947  0.342707  0.783313  1
  O  O43  1  0.784725  0.812691  0.719933  1
  O  O44  1  0.718483  0.756398  0.500903  1
  O  O45  1  0.215657  0.586953  0.281336  1
  O  O46  1  0.215929  0.299999  0.717306  1
  O  O47  1  0.282899  0.730068  0.066851  1
  O  O48  1  0.494263  0.774242  0.207668  1
  O  O49  1  0.720530  0.468531  0.936952  1
  O  O50  1  0.504408  0.430931  0.783339  1
  O  O51  1  0.784523  0.900610  0.281283  1
  O  O52  1  0.064234  0.142564  0.782882  1
  O  O53  1  0.288899  0.443853  0.495097  1
  O  O54  1  0.783541  0.612759  0.720126  1
  O  O55  1  0.718718  0.556072  0.501901  1
  O  O56  1  0.217059  0.386579  0.282920  1
  O  O57  1  0.921950  0.859702  0.207499  1
  O  O58  1  0.216300  0.099694  0.717719  1
  O  O59  1  0.495212  0.574694  0.207339  1
  O  O60  1  0.288608  0.526560  0.080329  1
  O  O61  1  0.712852  0.273121  0.921247  1
  O  O62  1  0.504037  0.230437  0.783088  1
  O  O63  1  0.782874  0.701059  0.279946  1
  O  O64  1  0.783713  0.413090  0.718197  1
  O  O65  1  0.286240  0.243675  0.494691  1
  O  O66  1  0.921161  0.659493  0.208327  1
  O  O67  1  0.713760  0.356325  0.505309  1
  O  O68  1  0.216287  0.186910  0.281803  1
  O  O69  1  0.287148  0.326879  0.078753  1
  O  O70  1  0.495963  0.369563  0.216912  1
  O  O71  1  0.711392  0.073440  0.919671  1
  O  O72  1  0.504788  0.025306  0.792661  1
  O  O73  1  0.783700  0.500306  0.282281  1
  O  O74  1  0.782941  0.213421  0.717080  1
  O  O75  1  0.281282  0.043928  0.498099  1
  O  O76  1  0.711101  0.156147  0.504903  1
  O  O77  1  0.935766  0.457436  0.217118  1
  O  O78  1  0.495592  0.169069  0.216661  1
  O  O79  1  0.279470  0.131469  0.063048  1
  O  O80  1  0.784071  0.300001  0.282694  1
  O  O81  1  0.784343  0.013047  0.718664  1
  O  O82  1  0.936053  0.257293  0.216687  1
  O  O83  1  0.783613  0.100740  0.279493  1
  O  O84  1  0.936953  0.057865  0.214918  1
