# generated using pymatgen
data_Li(ReO3)4
_symmetry_space_group_name_H-M   'P 1'
_cell_length_a   6.49665934
_cell_length_b   6.49665934
_cell_length_c   6.49665934
_cell_angle_alpha   109.57622786
_cell_angle_beta   109.01016191
_cell_angle_gamma   109.82835293
_symmetry_Int_Tables_number   1
_chemical_formula_structural   Li(ReO3)4
_chemical_formula_sum   'Li1 Re4 O12'
_cell_volume   211.06936386
_cell_formula_units_Z   1
loop_
 _symmetry_equiv_pos_site_id
 _symmetry_equiv_pos_as_xyz
  1  'x, y, z'
loop_
 _atom_site_type_symbol
 _atom_site_label
 _atom_site_symmetry_multiplicity
 _atom_site_fract_x
 _atom_site_fract_y
 _atom_site_fract_z
 _atom_site_occupancy
  Li  Li1  1  0.000000  0.500000  0.500000  1
  Re  Re2  1  0.500000  0.000000  0.000000  1
  Re  Re3  1  0.000000  0.000000  0.500000  1
  Re  Re4  1  0.000000  0.500000  0.000000  1
  Re  Re5  1  0.500000  0.500000  0.500000  1
  O  O6  1  0.791974  0.078863  0.286890  1
  O  O7  1  0.933251  0.717302  0.215949  1
  O  O8  1  0.498647  0.282698  0.215949  1
  O  O9  1  0.718815  0.215715  0.934529  1
  O  O10  1  0.281185  0.215715  0.496900  1
  O  O11  1  0.791974  0.505084  0.713110  1
  O  O12  1  0.208026  0.494916  0.286890  1
  O  O13  1  0.281185  0.784285  0.065471  1
  O  O14  1  0.718815  0.784285  0.503100  1
  O  O15  1  0.501353  0.717302  0.784051  1
  O  O16  1  0.066749  0.282698  0.784051  1
  O  O17  1  0.208026  0.921137  0.713110  1
