# generated using pymatgen
data_Li4CO4
_symmetry_space_group_name_H-M   'P 1'
_cell_length_a   4.17083047
_cell_length_b   5.11750434
_cell_length_c   7.43516962
_cell_angle_alpha   91.33130656
_cell_angle_beta   90.00402321
_cell_angle_gamma   114.05001308
_symmetry_Int_Tables_number   1
_chemical_formula_structural   Li4CO4
_chemical_formula_sum   'Li4 C1 O4'
_cell_volume   144.87447172
_cell_formula_units_Z   1
loop_
 _symmetry_equiv_pos_site_id
 _symmetry_equiv_pos_as_xyz
  1  'x, y, z'
loop_
 _atom_site_type_symbol
 _atom_site_label
 _atom_site_symmetry_multiplicity
 _atom_site_fract_x
 _atom_site_fract_y
 _atom_site_fract_z
 _atom_site_occupancy
  O  O1  1  0.207751  0.016330  0.343186  1
  O  O2  1  0.191424  0.983654  0.656796  1
  O  O3  1  0.711060  0.249665  0.514387  1
  O  O4  1  0.461375  0.750325  0.485616  1
  Li  Li5  1  0.218053  0.350053  0.526428  1
  C  C6  1  0.382676  1.000052  0.499996  1
  Li  Li7  1  0.738244  0.976757  0.699875  1
  Li  Li8  1  0.761457  0.023219  0.300130  1
  Li  Li9  1  0.867969  0.649945  0.473586  1
