# generated using pymatgen
data_K8Tl11
_symmetry_space_group_name_H-M   'P 1'
_cell_length_a   18.34230821
_cell_length_b   18.34230825
_cell_length_c   18.34230890
_cell_angle_alpha   32.57254907
_cell_angle_beta   32.57254884
_cell_angle_gamma   32.57254842
_symmetry_Int_Tables_number   1
_chemical_formula_structural   K8Tl11
_chemical_formula_sum   'K16 Tl22'
_cell_volume   1590.62598789
_cell_formula_units_Z   2
loop_
 _symmetry_equiv_pos_site_id
 _symmetry_equiv_pos_as_xyz
  1  'x, y, z'
loop_
 _atom_site_type_symbol
 _atom_site_label
 _atom_site_symmetry_multiplicity
 _atom_site_fract_x
 _atom_site_fract_y
 _atom_site_fract_z
 _atom_site_occupancy
  K  K1  1  0.589662  0.825958  0.149799  1
  K  K2  1  0.578818  0.578818  0.578818  1
  K  K3  1  0.421182  0.421182  0.421182  1
  K  K4  1  0.850201  0.410338  0.174042  1
  K  K5  1  0.174042  0.850201  0.410338  1
  K  K6  1  0.350201  0.674042  0.910338  1
  K  K7  1  0.325958  0.089662  0.649799  1
  K  K8  1  0.149799  0.589662  0.825958  1
  K  K9  1  0.910338  0.350201  0.674042  1
  K  K10  1  0.089662  0.649799  0.325958  1
  K  K11  1  0.649799  0.325958  0.089662  1
  K  K12  1  0.825958  0.149799  0.589662  1
  K  K13  1  0.674042  0.910338  0.350201  1
  K  K14  1  0.921182  0.921182  0.921182  1
  K  K15  1  0.410338  0.174042  0.850201  1
  K  K16  1  0.078818  0.078818  0.078818  1
  Tl  Tl17  1  0.416340  0.728031  0.010895  1
  Tl  Tl18  1  0.771969  0.083660  0.489105  1
  Tl  Tl19  1  0.532434  0.967566  0.750000  1
  Tl  Tl20  1  0.697961  0.697961  0.697961  1
  Tl  Tl21  1  0.989105  0.583660  0.271969  1
  Tl  Tl22  1  0.583660  0.271969  0.989105  1
  Tl  Tl23  1  0.250000  0.467566  0.032434  1
  Tl  Tl24  1  0.467566  0.032434  0.250000  1
  Tl  Tl25  1  0.489105  0.771969  0.083660  1
  Tl  Tl26  1  0.228031  0.916340  0.510895  1
  Tl  Tl27  1  0.802039  0.802039  0.802039  1
  Tl  Tl28  1  0.750000  0.532434  0.967566  1
  Tl  Tl29  1  0.032434  0.250000  0.467566  1
  Tl  Tl30  1  0.197961  0.197961  0.197961  1
  Tl  Tl31  1  0.271969  0.989105  0.583660  1
  Tl  Tl32  1  0.728031  0.010895  0.416340  1
  Tl  Tl33  1  0.967566  0.750000  0.532434  1
  Tl  Tl34  1  0.010895  0.416340  0.728031  1
  Tl  Tl35  1  0.302039  0.302039  0.302039  1
  Tl  Tl36  1  0.916340  0.510895  0.228031  1
  Tl  Tl37  1  0.510895  0.228031  0.916340  1
  Tl  Tl38  1  0.083660  0.489105  0.771969  1
