# generated using pymatgen
data_Li2ReO3
_symmetry_space_group_name_H-M   'P 1'
_cell_length_a   5.77579216
_cell_length_b   5.77579245
_cell_length_c   5.77579214
_cell_angle_alpha   51.19658317
_cell_angle_beta   51.19658088
_cell_angle_gamma   51.19658564
_symmetry_Int_Tables_number   1
_chemical_formula_structural   Li2ReO3
_chemical_formula_sum   'Li4 Re2 O6'
_cell_volume   107.98416585
_cell_formula_units_Z   2
loop_
 _symmetry_equiv_pos_site_id
 _symmetry_equiv_pos_as_xyz
  1  'x, y, z'
loop_
 _atom_site_type_symbol
 _atom_site_label
 _atom_site_symmetry_multiplicity
 _atom_site_fract_x
 _atom_site_fract_y
 _atom_site_fract_z
 _atom_site_occupancy
  Li  Li1  1  0.174415  0.174415  0.174415  1
  Li  Li2  1  0.324477  0.324477  0.324477  1
  Li  Li3  1  0.824477  0.824477  0.824477  1
  Li  Li4  1  0.674415  0.674415  0.674415  1
  Re  Re5  1  0.499317  0.499317  0.499317  1
  Re  Re6  1  0.999317  0.999317  0.999317  1
  O  O7  1  0.893357  0.605247  0.249486  1
  O  O8  1  0.249486  0.893357  0.605247  1
  O  O9  1  0.749486  0.105247  0.393357  1
  O  O10  1  0.393357  0.749486  0.105247  1
  O  O11  1  0.105247  0.393357  0.749486  1
  O  O12  1  0.605247  0.249486  0.893357  1
