# generated using pymatgen
data_Li2RhO3
_symmetry_space_group_name_H-M   'P 1'
_cell_length_a   5.96677517
_cell_length_b   5.15350279
_cell_length_c   9.89268682
_cell_angle_alpha   84.92949539
_cell_angle_beta   154.87495691
_cell_angle_gamma   106.77962019
_symmetry_Int_Tables_number   1
_chemical_formula_structural   Li2RhO3
_chemical_formula_sum   'Li4 Rh2 O6'
_cell_volume   111.90553533
_cell_formula_units_Z   2
loop_
 _symmetry_equiv_pos_site_id
 _symmetry_equiv_pos_as_xyz
  1  'x, y, z'
loop_
 _atom_site_type_symbol
 _atom_site_label
 _atom_site_symmetry_multiplicity
 _atom_site_fract_x
 _atom_site_fract_y
 _atom_site_fract_z
 _atom_site_occupancy
  Li  Li1  1  0.499516  0.500173  0.999721  1
  Li  Li2  1  0.175033  0.175988  0.337499  1
  Li  Li3  1  0.823775  0.825193  0.661858  1
  Li  Li4  1  0.999734  0.500018  0.999834  1
  Rh  Rh5  1  0.333036  0.833866  0.666504  1
  Rh  Rh6  1  0.665357  0.166208  0.332649  1
  O  O7  1  0.384468  0.152057  0.809408  1
  O  O8  1  0.614913  0.848092  0.190224  1
  O  O9  1  0.225065  0.500264  0.494745  1
  O  O10  1  0.079768  0.847948  0.157020  1
  O  O11  1  0.918063  0.151874  0.841816  1
  O  O12  1  0.773428  0.500231  0.504465  1
