# generated using pymatgen
data_Li3(RuO3)2
_symmetry_space_group_name_H-M   'P 1'
_cell_length_a   6.17076798
_cell_length_b   6.15586045
_cell_length_c   6.12883187
_cell_angle_alpha   79.99213958
_cell_angle_beta   69.64566920
_cell_angle_gamma   59.95181458
_symmetry_Int_Tables_number   1
_chemical_formula_structural   Li3(RuO3)2
_chemical_formula_sum   'Li6 Ru4 O12'
_cell_volume   188.94006108
_cell_formula_units_Z   2
loop_
 _symmetry_equiv_pos_site_id
 _symmetry_equiv_pos_as_xyz
  1  'x, y, z'
loop_
 _atom_site_type_symbol
 _atom_site_label
 _atom_site_symmetry_multiplicity
 _atom_site_fract_x
 _atom_site_fract_y
 _atom_site_fract_z
 _atom_site_occupancy
  Li  Li1  1  0.395529  0.209005  0.249949  1
  Li  Li2  1  0.253177  0.493909  0.749995  1
  Li  Li3  1  0.500000  0.500000  0.000000  1
  Li  Li4  1  0.746823  0.506091  0.250005  1
  Li  Li5  1  0.604471  0.790995  0.750051  1
  Li  Li6  1  0.000000  0.500000  0.500000  1
  Ru  Ru7  1  0.157546  0.165904  0.999327  1
  Ru  Ru8  1  0.323490  0.834121  0.498693  1
  Ru  Ru9  1  0.676510  0.165879  0.501307  1
  Ru  Ru10  1  0.842454  0.834096  0.000673  1
  O  O11  1  0.040967  0.155698  0.368900  1
  O  O12  1  0.119164  0.490823  0.115472  1
  O  O13  1  0.306002  0.151858  0.629906  1
  O  O14  1  0.391103  0.490755  0.383484  1
  O  O15  1  0.195773  0.845310  0.868184  1
  O  O16  1  0.543085  0.151206  0.870242  1
  O  O17  1  0.456915  0.848794  0.129758  1
  O  O18  1  0.804227  0.154690  0.131816  1
  O  O19  1  0.608897  0.509245  0.616516  1
  O  O20  1  0.693998  0.848142  0.370094  1
  O  O21  1  0.880836  0.509177  0.884528  1
  O  O22  1  0.959033  0.844302  0.631100  1
