# generated using pymatgen
data_Li35(RuO4)12
_symmetry_space_group_name_H-M   'P 1'
_cell_length_a   10.32545887
_cell_length_b   9.88080763
_cell_length_c   10.32545887
_cell_angle_alpha   69.05802590
_cell_angle_beta   70.50730994
_cell_angle_gamma   69.05802590
_symmetry_Int_Tables_number   1
_chemical_formula_structural   Li35(RuO4)12
_chemical_formula_sum   'Li35 Ru12 O48'
_cell_volume   892.88828927
_cell_formula_units_Z   1
loop_
 _symmetry_equiv_pos_site_id
 _symmetry_equiv_pos_as_xyz
  1  'x, y, z'
loop_
 _atom_site_type_symbol
 _atom_site_label
 _atom_site_symmetry_multiplicity
 _atom_site_fract_x
 _atom_site_fract_y
 _atom_site_fract_z
 _atom_site_occupancy
  Li  Li1  1  0.234170  0.583104  0.099601  1
  Li  Li2  1  0.099634  0.082365  0.234352  1
  Li  Li3  1  0.438273  0.749278  0.059705  1
  Li  Li4  1  0.060459  0.250438  0.439637  1
  Li  Li5  1  0.406506  0.914797  0.267761  1
  Li  Li6  1  0.640554  0.912285  0.032994  1
  Li  Li7  1  0.140786  0.916789  0.526035  1
  Li  Li8  1  0.526172  0.416993  0.141057  1
  Li  Li9  1  0.266205  0.417629  0.400872  1
  Li  Li10  1  0.026576  0.415714  0.640112  1
  Li  Li11  1  0.727519  0.586101  0.108985  1
  Li  Li12  1  0.227443  0.583101  0.606306  1
  Li  Li13  1  0.607810  0.076958  0.227901  1
  Li  Li14  1  0.106196  0.084047  0.726699  1
  Li  Li15  1  0.927252  0.750000  0.072748  1
  Li  Li16  1  0.193095  0.750000  0.806905  1
  Li  Li17  1  0.436157  0.750000  0.563843  1
  Li  Li18  1  0.067991  0.250000  0.932009  1
  Li  Li19  1  0.806810  0.250000  0.193190  1
  Li  Li20  1  0.567458  0.250000  0.432542  1
  Li  Li21  1  0.307713  0.250000  0.692287  1
  Li  Li22  1  0.891015  0.913899  0.272481  1
  Li  Li23  1  0.393694  0.916899  0.772557  1
  Li  Li24  1  0.273301  0.415953  0.893804  1
  Li  Li25  1  0.772099  0.423042  0.392190  1
  Li  Li26  1  0.967006  0.587715  0.359446  1
  Li  Li27  1  0.732239  0.585203  0.593494  1
  Li  Li28  1  0.473965  0.583211  0.859214  1
  Li  Li29  1  0.858943  0.083007  0.473828  1
  Li  Li30  1  0.359888  0.084286  0.973424  1
  Li  Li31  1  0.599128  0.082371  0.733795  1
  Li  Li32  1  0.940295  0.750722  0.561728  1
  Li  Li33  1  0.560363  0.249562  0.939541  1
  Li  Li34  1  0.900399  0.916896  0.765830  1
  Li  Li35  1  0.765648  0.417635  0.900366  1
  Ru  Ru36  1  0.154505  0.916898  0.011868  1
  Ru  Ru37  1  0.013718  0.414133  0.153853  1
  Ru  Ru38  1  0.179178  0.749303  0.321450  1
  Ru  Ru39  1  0.322419  0.249026  0.178854  1
  Ru  Ru40  1  0.489955  0.585523  0.344354  1
  Ru  Ru41  1  0.344555  0.084288  0.489347  1
  Ru  Ru42  1  0.655646  0.914477  0.510045  1
  Ru  Ru43  1  0.510653  0.415712  0.655445  1
  Ru  Ru44  1  0.678550  0.750697  0.820822  1
  Ru  Ru45  1  0.821146  0.250974  0.677581  1
  Ru  Ru46  1  0.988132  0.583102  0.845495  1
  Ru  Ru47  1  0.846147  0.085867  0.986282  1
  O  O48  1  0.073784  0.756452  0.186686  1
  O  O49  1  0.258600  0.909910  0.146852  1
  O  O50  1  0.190124  0.253637  0.072650  1
  O  O51  1  0.034468  0.906942  0.393374  1
  O  O52  1  0.148360  0.408351  0.258379  1
  O  O53  1  0.393821  0.406939  0.033429  1
  O  O54  1  0.106723  0.592944  0.466715  1
  O  O55  1  0.352076  0.589619  0.241563  1
  O  O56  1  0.468629  0.091417  0.107450  1
  O  O57  1  0.314212  0.743544  0.426075  1
  O  O58  1  0.240917  0.090257  0.353286  1
  O  O59  1  0.553389  0.739790  0.194822  1
  O  O60  1  0.059748  0.740746  0.700107  1
  O  O61  1  0.425483  0.244108  0.314038  1
  O  O62  1  0.776424  0.930996  0.127941  1
  O  O63  1  0.272278  0.926859  0.633721  1
  O  O64  1  0.700594  0.242529  0.058676  1
  O  O65  1  0.198281  0.242811  0.560454  1
  O  O66  1  0.020456  0.924510  0.906266  1
  O  O67  1  0.515890  0.927397  0.409989  1
  O  O68  1  0.133513  0.426253  0.773111  1
  O  O69  1  0.634042  0.426931  0.273437  1
  O  O70  1  0.908053  0.422382  0.018780  1
  O  O71  1  0.407028  0.422801  0.520608  1
  O  O72  1  0.590011  0.572603  0.484110  1
  O  O73  1  0.093734  0.575490  0.979544  1
  O  O74  1  0.872059  0.569004  0.223576  1
  O  O75  1  0.366279  0.573141  0.727722  1
  O  O76  1  0.981220  0.077618  0.091947  1
  O  O77  1  0.479392  0.077199  0.592972  1
  O  O78  1  0.299893  0.759254  0.940252  1
  O  O79  1  0.805178  0.760210  0.446611  1
  O  O80  1  0.226889  0.073747  0.866487  1
  O  O81  1  0.726563  0.073069  0.365958  1
  O  O82  1  0.573925  0.756456  0.685788  1
  O  O83  1  0.941324  0.257471  0.299406  1
  O  O84  1  0.439546  0.257189  0.801719  1
  O  O85  1  0.758437  0.910381  0.647924  1
  O  O86  1  0.685962  0.255892  0.574517  1
  O  O87  1  0.533285  0.907056  0.893277  1
  O  O88  1  0.646714  0.409743  0.759083  1
  O  O89  1  0.892550  0.408583  0.531371  1
  O  O90  1  0.606626  0.593058  0.965532  1
  O  O91  1  0.853148  0.590090  0.741400  1
  O  O92  1  0.966571  0.093061  0.606179  1
  O  O93  1  0.813314  0.743548  0.926216  1
  O  O94  1  0.741621  0.091649  0.851640  1
  O  O95  1  0.927350  0.246363  0.809876  1
