# generated using pymatgen
data_Li11(RuO3)8
_symmetry_space_group_name_H-M   'P 1'
_cell_length_a   5.09242667
_cell_length_b   8.78016884
_cell_length_c   9.95852020
_cell_angle_alpha   98.74834395
_cell_angle_beta   94.61532317
_cell_angle_gamma   91.46448614
_symmetry_Int_Tables_number   1
_chemical_formula_structural   Li11(RuO3)8
_chemical_formula_sum   'Li11 Ru8 O24'
_cell_volume   438.33871829
_cell_formula_units_Z   1
loop_
 _symmetry_equiv_pos_site_id
 _symmetry_equiv_pos_as_xyz
  1  'x, y, z'
loop_
 _atom_site_type_symbol
 _atom_site_label
 _atom_site_symmetry_multiplicity
 _atom_site_fract_x
 _atom_site_fract_y
 _atom_site_fract_z
 _atom_site_occupancy
  Li  Li1  1  0.610973  0.804147  0.249121  1
  Li  Li2  1  0.182023  0.962837  0.257390  1
  Li  Li3  1  0.889718  0.701190  0.749999  1
  Li  Li4  1  0.384111  0.871884  0.752374  1
  Li  Li5  1  0.115513  0.626732  0.250488  1
  Li  Li6  1  0.646173  0.425952  0.243787  1
  Li  Li7  1  0.345142  0.551444  0.745722  1
  Li  Li8  1  0.880912  0.374825  0.747698  1
  Li  Li9  1  0.104454  0.293957  0.251246  1
  Li  Li10  1  0.846916  0.052340  0.752789  1
  Li  Li11  1  0.390882  0.201809  0.749497  1
  Ru  Ru12  1  0.775363  0.925574  0.003691  1
  Ru  Ru13  1  0.720237  0.574277  0.997834  1
  Ru  Ru14  1  0.003206  0.849427  0.502199  1
  Ru  Ru15  1  0.500916  0.661039  0.497959  1
  Ru  Ru16  1  0.498576  0.338382  0.499918  1
  Ru  Ru17  1  0.990920  0.144634  0.499220  1
  Ru  Ru18  1  0.278105  0.429567  0.999005  1
  Ru  Ru19  1  0.232546  0.077873  0.000712  1
  O  O20  1  0.838865  0.969461  0.369361  1
  O  O21  1  0.456254  0.945946  0.103600  1
  O  O22  1  0.903507  0.765551  0.109731  1
  O  O23  1  0.702529  0.841525  0.616119  1
  O  O24  1  0.806213  0.663929  0.389011  1
  O  O25  1  0.301901  0.803668  0.384053  1
  O  O26  1  0.955087  0.449073  0.110187  1
  O  O27  1  0.044537  0.907574  0.868118  1
  O  O28  1  0.591403  0.732696  0.887434  1
  O  O29  1  0.457116  0.598133  0.133128  1
  O  O30  1  0.198941  0.701534  0.613010  1
  O  O31  1  0.653504  0.523900  0.626813  1
  O  O32  1  0.348387  0.472874  0.370671  1
  O  O33  1  0.804782  0.295544  0.396039  1
  O  O34  1  0.542709  0.404956  0.864444  1
  O  O35  1  0.402798  0.271541  0.104858  1
  O  O36  1  0.969347  0.090946  0.132319  1
  O  O37  1  0.040813  0.552638  0.886215  1
  O  O38  1  0.698091  0.198194  0.616347  1
  O  O39  1  0.195616  0.331986  0.611033  1
  O  O40  1  0.289096  0.161124  0.393889  1
  O  O41  1  0.099416  0.234800  0.890030  1
  O  O42  1  0.552657  0.050878  0.888431  1
  O  O43  1  0.165247  0.025139  0.634512  1
