# generated using pymatgen
data_Li7RuO6
_symmetry_space_group_name_H-M   'P 1'
_cell_length_a   5.35636637
_cell_length_b   5.43397953
_cell_length_c   5.94701837
_cell_angle_alpha   117.14512181
_cell_angle_beta   91.23421951
_cell_angle_gamma   119.46456508
_symmetry_Int_Tables_number   1
_chemical_formula_structural   Li7RuO6
_chemical_formula_sum   'Li7 Ru1 O6'
_cell_volume   127.17058364
_cell_formula_units_Z   1
loop_
 _symmetry_equiv_pos_site_id
 _symmetry_equiv_pos_as_xyz
  1  'x, y, z'
loop_
 _atom_site_type_symbol
 _atom_site_label
 _atom_site_symmetry_multiplicity
 _atom_site_fract_x
 _atom_site_fract_y
 _atom_site_fract_z
 _atom_site_occupancy
  Li  Li1  1  0.233965  0.768102  0.625827  1
  Li  Li2  1  0.302476  0.680544  0.036235  1
  Li  Li3  1  0.491901  0.585007  0.346624  1
  Li  Li4  1  0.481309  0.377725  0.631929  1
  Li  Li5  1  0.704972  0.362596  0.998206  1
  Li  Li6  1  0.762062  0.252722  0.357631  1
  Li  Li7  1  0.915928  0.112714  0.620797  1
  O  O8  1  0.077466  0.448631  0.230740  1
  O  O9  1  0.248447  0.169429  0.802463  1
  O  O10  1  0.625738  0.844981  0.746892  1
  O  O11  1  0.377996  0.145891  0.236667  1
  O  O12  1  0.756674  0.852085  0.223044  1
  O  O13  1  0.917298  0.528016  0.759801  1
  Ru  Ru14  1  0.998767  0.995557  0.005143  1
