# generated using pymatgen
data_Li4CO4
_symmetry_space_group_name_H-M   'P 1'
_cell_length_a   4.36996178
_cell_length_b   5.08557958
_cell_length_c   5.08557754
_cell_angle_alpha   79.36498833
_cell_angle_beta   64.55411009
_cell_angle_gamma   64.55410964
_symmetry_Int_Tables_number   1
_chemical_formula_structural   Li4CO4
_chemical_formula_sum   'Li4 C1 O4'
_cell_volume   92.15643221
_cell_formula_units_Z   1
loop_
 _symmetry_equiv_pos_site_id
 _symmetry_equiv_pos_as_xyz
  1  'x, y, z'
loop_
 _atom_site_type_symbol
 _atom_site_label
 _atom_site_symmetry_multiplicity
 _atom_site_fract_x
 _atom_site_fract_y
 _atom_site_fract_z
 _atom_site_occupancy
  Li  Li1  1  0.036551  0.999983  0.658681  1
  O  O2  1  0.815805  0.750936  -0.000018  1
  O  O3  1  0.184195  1.000017  0.249064  1
  C  C4  1  0.499998  1.000006  -0.000005  1
  Li  Li5  1  0.304790  0.658680  1.000006  1
  O  O6  1  0.433254  1.000001  0.750935  1
  Li  Li7  1  0.963449  0.341319  0.000018  1
  Li  Li8  1  0.695210  -0.000006  0.341320  1
  O  O9  1  0.566747  0.249064  -0.000001  1
