# generated using pymatgen
data_Li9(RuO3)10
_symmetry_space_group_name_H-M   'P 1'
_cell_length_a   29.93239844
_cell_length_b   16.29970629
_cell_length_c   10.72293219
_cell_angle_alpha   24.93528504
_cell_angle_beta   26.25309265
_cell_angle_gamma   16.94137864
_symmetry_Int_Tables_number   1
_chemical_formula_structural   Li9(RuO3)10
_chemical_formula_sum   'Li9 Ru10 O30'
_cell_volume   624.00476086
_cell_formula_units_Z   1
loop_
 _symmetry_equiv_pos_site_id
 _symmetry_equiv_pos_as_xyz
  1  'x, y, z'
loop_
 _atom_site_type_symbol
 _atom_site_label
 _atom_site_symmetry_multiplicity
 _atom_site_fract_x
 _atom_site_fract_y
 _atom_site_fract_z
 _atom_site_occupancy
  Li  Li1  1  0.000952  0.997623  0.998718  1
  Li  Li2  1  0.201304  0.999589  0.992612  1
  Li  Li3  1  0.398696  0.000411  0.007388  1
  Li  Li4  1  0.599048  0.002377  0.001282  1
  Li  Li5  1  0.198580  0.505634  0.495712  1
  Li  Li6  1  0.800000  0.000000  0.000000  1
  Li  Li7  1  0.401420  0.494366  0.504288  1
  Li  Li8  1  0.603233  0.495473  0.497814  1
  Li  Li9  1  0.996767  0.504527  0.502186  1
  Ru  Ru10  1  0.070846  0.322622  0.325845  1
  Ru  Ru11  1  0.266663  0.331934  0.323467  1
  Ru  Ru12  1  0.131277  0.672767  0.677538  1
  Ru  Ru13  1  0.468723  0.327233  0.322462  1
  Ru  Ru14  1  0.333337  0.668066  0.676533  1
  Ru  Ru15  1  0.673764  0.319100  0.321625  1
  Ru  Ru16  1  0.529154  0.677378  0.674155  1
  Ru  Ru17  1  0.865266  0.334875  0.340685  1
  Ru  Ru18  1  0.734734  0.665125  0.659315  1
  Ru  Ru19  1  0.926236  0.680900  0.678375  1
  O  O20  1  0.119645  0.078116  0.683346  1
  O  O21  1  0.144901  0.436391  0.087965  1
  O  O22  1  0.141518  0.321661  0.563783  1
  O  O23  1  0.053190  0.694104  0.425346  1
  O  O24  1  0.314819  0.085979  0.683465  1
  O  O25  1  0.343481  0.441104  0.085236  1
  O  O26  1  0.061337  0.552196  0.913637  1
  O  O27  1  0.078162  0.930194  0.316755  1
  O  O28  1  0.343412  0.321471  0.554142  1
  O  O29  1  0.256588  0.678529  0.445858  1
  O  O30  1  0.521838  0.069806  0.683245  1
  O  O31  1  0.538663  0.447804  0.086363  1
  O  O32  1  0.256519  0.558896  0.914764  1
  O  O33  1  0.285181  0.914021  0.316535  1
  O  O34  1  0.546810  0.305896  0.574654  1
  O  O35  1  0.458482  0.678339  0.436217  1
  O  O36  1  0.717120  0.088346  0.682123  1
  O  O37  1  0.750303  0.431785  0.069454  1
  O  O38  1  0.455099  0.563609  0.912035  1
  O  O39  1  0.480355  0.921884  0.316654  1
  O  O40  1  0.745564  0.317224  0.566197  1
  O  O41  1  0.648316  0.692869  0.443889  1
  O  O42  1  0.921631  0.066288  0.698880  1
  O  O43  1  0.946510  0.442672  0.074122  1
  O  O44  1  0.653490  0.557328  0.925878  1
  O  O45  1  0.678369  0.933712  0.301120  1
  O  O46  1  0.951684  0.307131  0.556111  1
  O  O47  1  0.854436  0.682776  0.433803  1
  O  O48  1  0.849697  0.568215  0.930546  1
  O  O49  1  0.882880  0.911654  0.317877  1
