# generated using pymatgen
data_Li2SO4
_symmetry_space_group_name_H-M   'P 1'
_cell_length_a   5.39082323
_cell_length_b   9.58484313
_cell_length_c   7.77738028
_cell_angle_alpha   34.28213593
_cell_angle_beta   46.83460905
_cell_angle_gamma   56.06522983
_symmetry_Int_Tables_number   1
_chemical_formula_structural   Li2SO4
_chemical_formula_sum   'Li4 S2 O8'
_cell_volume   165.07475344
_cell_formula_units_Z   2
loop_
 _symmetry_equiv_pos_site_id
 _symmetry_equiv_pos_as_xyz
  1  'x, y, z'
loop_
 _atom_site_type_symbol
 _atom_site_label
 _atom_site_symmetry_multiplicity
 _atom_site_fract_x
 _atom_site_fract_y
 _atom_site_fract_z
 _atom_site_occupancy
  Li  Li1  1  0.130073  0.986153  0.393943  1
  Li  Li2  1  0.365620  0.518308  0.099108  1
  Li  Li3  1  0.625183  0.986737  0.893335  1
  Li  Li4  1  0.878688  0.508324  0.607587  1
  S  S5  1  0.008218  0.012206  0.987060  1
  S  S6  1  0.993131  0.490157  0.011657  1
  O  O7  1  0.113271  0.245321  0.611080  1
  O  O8  1  0.193625  0.793257  0.056415  1
  O  O9  1  0.089637  0.040859  0.105180  1
  O  O10  1  0.838283  0.249244  0.383978  1
  O  O11  1  0.367743  0.470392  0.870927  1
  O  O12  1  0.638568  0.967885  0.176421  1
  O  O13  1  0.882332  0.543604  0.829630  1
  O  O14  1  0.888800  0.701786  0.956023  1
