# generated using pymatgen
data_Li2SO4
_symmetry_space_group_name_H-M   'P 1'
_cell_length_a   4.97114080
_cell_length_b   4.97114029
_cell_length_c   6.21114101
_cell_angle_alpha   90.00000000
_cell_angle_beta   90.00000000
_cell_angle_gamma   112.00975220
_symmetry_Int_Tables_number   1
_chemical_formula_structural   Li2SO4
_chemical_formula_sum   'Li4 S2 O8'
_cell_volume   142.30477081
_cell_formula_units_Z   2
loop_
 _symmetry_equiv_pos_site_id
 _symmetry_equiv_pos_as_xyz
  1  'x, y, z'
loop_
 _atom_site_type_symbol
 _atom_site_label
 _atom_site_symmetry_multiplicity
 _atom_site_fract_x
 _atom_site_fract_y
 _atom_site_fract_z
 _atom_site_occupancy
  Li  Li1  1  0.500000  0.500000  0.000000  1
  Li  Li2  1  0.174866  0.825134  0.750000  1
  Li  Li3  1  0.500000  0.500000  0.500000  1
  Li  Li4  1  0.825134  0.174866  0.250000  1
  S  S5  1  0.146638  0.853362  0.250000  1
  S  S6  1  0.853362  0.146638  0.750000  1
  O  O7  1  0.745238  0.820804  0.750000  1
  O  O8  1  0.179196  0.254762  0.750000  1
  O  O9  1  0.749229  0.250771  0.944312  1
  O  O10  1  0.254762  0.179196  0.250000  1
  O  O11  1  0.749229  0.250771  0.555688  1
  O  O12  1  0.820804  0.745238  0.250000  1
  O  O13  1  0.250771  0.749229  0.055688  1
  O  O14  1  0.250771  0.749229  0.444312  1
