# generated using pymatgen
data_Li2S2O7
_symmetry_space_group_name_H-M   'P 1'
_cell_length_a   13.35716614
_cell_length_b   8.36992265
_cell_length_c   4.93159157
_cell_angle_alpha   90.00000000
_cell_angle_beta   90.00000000
_cell_angle_gamma   90.00000000
_symmetry_Int_Tables_number   1
_chemical_formula_structural   Li2S2O7
_chemical_formula_sum   'Li8 S8 O28'
_cell_volume   551.34428081
_cell_formula_units_Z   4
loop_
 _symmetry_equiv_pos_site_id
 _symmetry_equiv_pos_as_xyz
  1  'x, y, z'
loop_
 _atom_site_type_symbol
 _atom_site_label
 _atom_site_symmetry_multiplicity
 _atom_site_fract_x
 _atom_site_fract_y
 _atom_site_fract_z
 _atom_site_occupancy
  Li  Li1  1  0.396152  0.568545  0.600975  1
  Li  Li2  1  0.896152  0.931455  0.899025  1
  Li  Li3  1  0.603848  0.068545  0.399025  1
  Li  Li4  1  0.103848  0.431455  0.100975  1
  Li  Li5  1  0.603848  0.431455  0.399025  1
  Li  Li6  1  0.103848  0.068545  0.100975  1
  Li  Li7  1  0.396152  0.931455  0.600975  1
  Li  Li8  1  0.896152  0.568545  0.899025  1
  S  S9  1  0.283774  0.250000  0.777984  1
  S  S10  1  0.783774  0.250000  0.722016  1
  S  S11  1  0.716226  0.750000  0.222016  1
  S  S12  1  0.216226  0.750000  0.277984  1
  S  S13  1  0.496049  0.250000  0.885460  1
  S  S14  1  0.996049  0.250000  0.614540  1
  S  S15  1  0.503951  0.750000  0.114540  1
  S  S16  1  0.003951  0.750000  0.385460  1
  O  O17  1  0.293876  0.396646  0.624451  1
  O  O18  1  0.793876  0.103354  0.875549  1
  O  O19  1  0.706124  0.896646  0.375549  1
  O  O20  1  0.206124  0.603354  0.124451  1
  O  O21  1  0.706124  0.603354  0.375549  1
  O  O22  1  0.206124  0.896646  0.124451  1
  O  O23  1  0.293876  0.103354  0.624451  1
  O  O24  1  0.793876  0.396646  0.875549  1
  O  O25  1  0.200787  0.250000  0.970275  1
  O  O26  1  0.700787  0.250000  0.529725  1
  O  O27  1  0.799213  0.750000  0.029725  1
  O  O28  1  0.299213  0.750000  0.470275  1
  O  O29  1  0.381859  0.250000  -0.000437  1
  O  O30  1  0.881859  0.250000  0.500437  1
  O  O31  1  0.618141  0.750000  0.000437  1
  O  O32  1  0.118141  0.750000  0.499563  1
  O  O33  1  0.507758  0.396274  0.725795  1
  O  O34  1  0.007758  0.103726  0.774205  1
  O  O35  1  0.492242  0.896274  0.274205  1
  O  O36  1  0.992242  0.603726  0.225795  1
  O  O37  1  0.492242  0.603726  0.274205  1
  O  O38  1  0.992242  0.896274  0.225795  1
  O  O39  1  0.507758  0.103726  0.725795  1
  O  O40  1  0.007758  0.396274  0.774205  1
  O  O41  1  0.554160  0.250000  0.136386  1
  O  O42  1  0.054160  0.250000  0.363614  1
  O  O43  1  0.445840  0.750000  0.863614  1
  O  O44  1  0.945840  0.750000  0.636386  1
