# generated using pymatgen
data_LiSbO3
_symmetry_space_group_name_H-M   'P 1'
_cell_length_a   6.76274023
_cell_length_b   5.30757726
_cell_length_c   9.95285004
_cell_angle_alpha   86.70535972
_cell_angle_beta   42.64124201
_cell_angle_gamma   51.19136922
_symmetry_Int_Tables_number   1
_chemical_formula_structural   LiSbO3
_chemical_formula_sum   'Li2 Sb2 O6'
_cell_volume   121.56135708
_cell_formula_units_Z   2
loop_
 _symmetry_equiv_pos_site_id
 _symmetry_equiv_pos_as_xyz
  1  'x, y, z'
loop_
 _atom_site_type_symbol
 _atom_site_label
 _atom_site_symmetry_multiplicity
 _atom_site_fract_x
 _atom_site_fract_y
 _atom_site_fract_z
 _atom_site_occupancy
  Li  Li1  1  0.045187  0.454037  0.153215  1
  Li  Li2  1  0.952161  0.545952  0.848121  1
  Sb  Sb3  1  0.337397  0.500034  0.331381  1
  Sb  Sb4  1  0.660995  0.499944  0.669430  1
  O  O5  1  0.201194  0.298004  0.282373  1
  O  O6  1  0.797149  0.702053  0.718427  1
  O  O7  1  0.672311  0.183183  0.555697  1
  O  O8  1  0.039375  0.816459  0.088428  1
  O  O9  1  0.326402  0.816667  0.444733  1
  O  O10  1  0.959049  0.183279  0.912170  1
