# generated using pymatgen
data_Li4CO4
_symmetry_space_group_name_H-M   'P 1'
_cell_length_a   4.25094960
_cell_length_b   4.23590485
_cell_length_c   4.96783788
_cell_angle_alpha   115.28345055
_cell_angle_beta   115.33212285
_cell_angle_gamma   89.99889164
_symmetry_Int_Tables_number   1
_chemical_formula_structural   Li4CO4
_chemical_formula_sum   'Li4 C1 O4'
_cell_volume   71.25653834
_cell_formula_units_Z   1
loop_
 _symmetry_equiv_pos_site_id
 _symmetry_equiv_pos_as_xyz
  1  'x, y, z'
loop_
 _atom_site_type_symbol
 _atom_site_label
 _atom_site_symmetry_multiplicity
 _atom_site_fract_x
 _atom_site_fract_y
 _atom_site_fract_z
 _atom_site_occupancy
  Li  Li1  1  0.249587  0.445797  0.285867  1
  Li  Li2  1  0.661545  0.838180  0.288893  1
  Li  Li3  1  0.372584  0.161752  0.711086  1
  Li  Li4  1  0.963719  0.554171  0.714185  1
  C  C5  1  0.808302  0.000005  0.999972  1
  O  O6  1  0.893672  0.086589  0.788171  1
  O  O7  1  0.105515  0.913438  0.211803  1
  O  O8  1  0.723966  0.298151  0.213254  1
  O  O9  1  0.510700  0.701917  0.786769  1
