# generated using pymatgen
data_LiSb3O8
_symmetry_space_group_name_H-M   'P 1'
_cell_length_a   4.78437542
_cell_length_b   5.70544353
_cell_length_c   10.45115045
_cell_angle_alpha   96.37903312
_cell_angle_beta   90.00000000
_cell_angle_gamma   90.00000000
_symmetry_Int_Tables_number   1
_chemical_formula_structural   LiSb3O8
_chemical_formula_sum   'Li2 Sb6 O16'
_cell_volume   283.51858387
_cell_formula_units_Z   2
loop_
 _symmetry_equiv_pos_site_id
 _symmetry_equiv_pos_as_xyz
  1  'x, y, z'
loop_
 _atom_site_type_symbol
 _atom_site_label
 _atom_site_symmetry_multiplicity
 _atom_site_fract_x
 _atom_site_fract_y
 _atom_site_fract_z
 _atom_site_occupancy
  Li  Li1  1  0.500000  0.000000  0.500000  1
  Li  Li2  1  0.000000  0.000000  0.000000  1
  O  O3  1  0.330578  0.236344  0.082078  1
  O  O4  1  0.830578  0.763656  0.417922  1
  O  O5  1  0.669422  0.763656  0.917922  1
  O  O6  1  0.169422  0.236344  0.582078  1
  O  O7  1  0.219802  0.480210  0.326804  1
  O  O8  1  0.719802  0.519790  0.173196  1
  O  O9  1  0.780198  0.519790  0.673196  1
  O  O10  1  0.280198  0.480210  0.826804  1
  O  O11  1  0.708290  0.279447  0.420420  1
  O  O12  1  0.208290  0.720553  0.079580  1
  O  O13  1  0.291710  0.720553  0.579580  1
  O  O14  1  0.791710  0.279447  0.920420  1
  O  O15  1  0.191267  0.988702  0.824640  1
  O  O16  1  0.691267  0.011298  0.675360  1
  O  O17  1  0.808733  0.011298  0.175360  1
  O  O18  1  0.308733  0.988702  0.324640  1
  Sb  Sb19  1  0.500000  0.500000  0.000000  1
  Sb  Sb20  1  0.000000  0.500000  0.500000  1
  Sb  Sb21  1  0.976929  0.236877  0.751189  1
  Sb  Sb22  1  0.476929  0.763123  0.748811  1
  Sb  Sb23  1  0.023071  0.763123  0.248811  1
  Sb  Sb24  1  0.523071  0.236877  0.251189  1
