# generated using pymatgen
data_Li4CO4
_symmetry_space_group_name_H-M   'P 1'
_cell_length_a   5.08038058
_cell_length_b   4.88616585
_cell_length_c   5.90513788
_cell_angle_alpha   90.00000000
_cell_angle_beta   90.00000000
_cell_angle_gamma   90.00000000
_symmetry_Int_Tables_number   1
_chemical_formula_structural   Li4CO4
_chemical_formula_sum   'Li8 C2 O8'
_cell_volume   146.58667495
_cell_formula_units_Z   2
loop_
 _symmetry_equiv_pos_site_id
 _symmetry_equiv_pos_as_xyz
  1  'x, y, z'
loop_
 _atom_site_type_symbol
 _atom_site_label
 _atom_site_symmetry_multiplicity
 _atom_site_fract_x
 _atom_site_fract_y
 _atom_site_fract_z
 _atom_site_occupancy
  Li  Li1  1  0.568852  0.408869  0.299702  1
  Li  Li2  1  0.431148  0.908869  0.799702  1
  Li  Li3  1  0.568852  0.408869  0.700298  1
  Li  Li4  1  0.917714  0.027701  0.000000  1
  Li  Li5  1  0.094209  0.033859  0.500000  1
  Li  Li6  1  0.905791  0.533859  0.000000  1
  Li  Li7  1  0.082286  0.527701  0.500000  1
  Li  Li8  1  0.431148  0.908869  0.200298  1
  C  C9  1  0.310983  0.341400  0.000000  1
  C  C10  1  0.689017  0.841400  0.500000  1
  O  O11  1  0.182356  0.237661  0.803349  1
  O  O12  1  0.309698  0.623896  0.000000  1
  O  O13  1  0.817644  0.737661  0.303349  1
  O  O14  1  0.420467  0.737363  0.500000  1
  O  O15  1  0.182356  0.237661  0.196651  1
  O  O16  1  0.579533  0.237363  0.000000  1
  O  O17  1  0.817644  0.737661  0.696651  1
  O  O18  1  0.690302  0.123896  0.500000  1
