# generated using pymatgen
data_Li2SeO4
_symmetry_space_group_name_H-M   'P 1'
_cell_length_a   8.63434525
_cell_length_b   9.08747229
_cell_length_c   9.07239544
_cell_angle_alpha   92.87802187
_cell_angle_beta   104.85194462
_cell_angle_gamma   113.42088146
_symmetry_Int_Tables_number   1
_chemical_formula_structural   Li2SeO4
_chemical_formula_sum   'Li12 Se6 O24'
_cell_volume   622.03457828
_cell_formula_units_Z   6
loop_
 _symmetry_equiv_pos_site_id
 _symmetry_equiv_pos_as_xyz
  1  'x, y, z'
loop_
 _atom_site_type_symbol
 _atom_site_label
 _atom_site_symmetry_multiplicity
 _atom_site_fract_x
 _atom_site_fract_y
 _atom_site_fract_z
 _atom_site_occupancy
  Li  Li1  1  0.249416  0.536583  0.452304  1
  Li  Li2  1  0.751573  0.464016  0.548941  1
  Li  Li3  1  0.294841  0.080521  0.907065  1
  Li  Li4  1  0.344433  0.188769  0.639684  1
  Li  Li5  1  0.563236  0.389086  0.177127  1
  Li  Li6  1  0.655540  0.811799  0.359393  1
  Li  Li7  1  0.134477  0.934260  0.271786  1
  Li  Li8  1  0.922022  0.361133  0.099207  1
  Li  Li9  1  0.438340  0.608585  0.823795  1
  Li  Li10  1  0.700382  0.919072  0.087634  1
  Li  Li11  1  0.858728  0.067792  0.719190  1
  Li  Li12  1  0.078339  0.638020  0.901847  1
  Se  Se13  1  0.682088  0.301204  0.783347  1
  Se  Se14  1  0.317465  0.700109  0.217769  1
  Se  Se15  1  0.715499  0.183357  0.311710  1
  Se  Se16  1  0.134034  0.346520  0.733038  1
  Se  Se17  1  0.287327  0.816757  0.692045  1
  Se  Se18  1  0.864672  0.654013  0.265022  1
  O  O19  1  0.161863  0.630178  0.589499  1
  O  O20  1  0.578498  0.252926  0.592598  1
  O  O21  1  0.489650  0.831438  0.788181  1
  O  O22  1  0.188684  0.845007  0.822993  1
  O  O23  1  0.840047  0.370956  0.412176  1
  O  O24  1  0.776600  0.495008  0.114164  1
  O  O25  1  0.685232  0.603772  0.339209  1
  O  O26  1  0.952610  0.950004  0.531368  1
  O  O27  1  0.128640  0.172343  0.812304  1
  O  O28  1  0.519529  0.244977  0.865988  1
  O  O29  1  0.049853  0.046524  0.465744  1
  O  O30  1  0.185007  0.790939  0.147717  1
  O  O31  1  0.422016  0.748453  0.408361  1
  O  O32  1  0.313563  0.395790  0.658799  1
  O  O33  1  0.709445  0.046150  0.426994  1
  O  O34  1  0.816399  0.500642  0.802625  1
  O  O35  1  0.183710  0.500524  0.198178  1
  O  O36  1  0.296042  0.955816  0.579164  1
  O  O37  1  0.224039  0.503866  0.886162  1
  O  O38  1  0.479754  0.756862  0.134887  1
  O  O39  1  0.813014  0.154103  0.180272  1
  O  O40  1  0.512631  0.166894  0.215689  1
  O  O41  1  0.813815  0.209570  0.852880  1
  O  O42  1  0.866946  0.825661  0.183143  1
