# generated using pymatgen
data_Li2SeO4
_symmetry_space_group_name_H-M   'P 1'
_cell_length_a   8.57074596
_cell_length_b   9.63279853
_cell_length_c   9.97343507
_cell_angle_alpha   97.78953485
_cell_angle_beta   108.43439549
_cell_angle_gamma   113.65767648
_symmetry_Int_Tables_number   1
_chemical_formula_structural   Li2SeO4
_chemical_formula_sum   'Li12 Se6 O24'
_cell_volume   682.10006068
_cell_formula_units_Z   6
loop_
 _symmetry_equiv_pos_site_id
 _symmetry_equiv_pos_as_xyz
  1  'x, y, z'
loop_
 _atom_site_type_symbol
 _atom_site_label
 _atom_site_symmetry_multiplicity
 _atom_site_fract_x
 _atom_site_fract_y
 _atom_site_fract_z
 _atom_site_occupancy
  Li  Li1  1  0.144015  0.574924  0.403069  1
  Li  Li2  1  0.856318  0.422642  0.595803  1
  Li  Li3  1  0.378916  0.116847  0.939556  1
  Li  Li4  1  0.339516  0.205516  0.614397  1
  Li  Li5  1  0.566932  0.364676  0.224973  1
  Li  Li6  1  0.658713  0.789039  0.382685  1
  Li  Li7  1  0.090385  0.893964  0.258875  1
  Li  Li8  1  0.919525  0.345245  0.089943  1
  Li  Li9  1  0.435459  0.629212  0.773893  1
  Li  Li10  1  0.596227  0.886083  0.054277  1
  Li  Li11  1  0.897528  0.104685  0.739313  1
  Li  Li12  1  0.083143  0.658769  0.911770  1
  Se  Se13  1  0.681199  0.278116  0.774606  1
  Se  Se14  1  0.319031  0.727025  0.229539  1
  Se  Se15  1  0.722855  0.181701  0.292584  1
  Se  Se16  1  0.188378  0.361311  0.778678  1
  Se  Se17  1  0.290071  0.820606  0.708000  1
  Se  Se18  1  0.809234  0.633573  0.220195  1
  O  O19  1  0.215244  0.627008  0.611436  1
  O  O20  1  0.575443  0.208138  0.588859  1
  O  O21  1  0.496043  0.852364  0.847168  1
  O  O22  1  0.145175  0.811953  0.795492  1
  O  O23  1  0.775166  0.367909  0.389189  1
  O  O24  1  0.744509  0.457803  0.107059  1
  O  O25  1  0.657854  0.596351  0.301506  1
  O  O26  1  0.928594  0.973228  0.515524  1
  O  O27  1  0.177901  0.215570  0.857333  1
  O  O28  1  0.498777  0.221463  0.820820  1
  O  O29  1  0.066159  0.025441  0.478909  1
  O  O30  1  0.188419  0.804659  0.139914  1
  O  O31  1  0.427633  0.794795  0.415452  1
  O  O32  1  0.335397  0.396600  0.693113  1
  O  O33  1  0.968733  0.283270  0.651378  1
  O  O34  1  0.818558  0.473879  0.809922  1
  O  O35  1  0.180719  0.531127  0.191362  1
  O  O36  1  0.028569  0.713501  0.349199  1
  O  O37  1  0.257152  0.537302  0.893922  1
  O  O38  1  0.499395  0.780801  0.180447  1
  O  O39  1  0.886250  0.210673  0.221557  1
  O  O40  1  0.520773  0.142745  0.143762  1
  O  O41  1  0.814994  0.204010  0.866228  1
  O  O42  1  0.815097  0.775472  0.138293  1
