# generated using pymatgen
data_Li2Si4O7
_symmetry_space_group_name_H-M   'P 1'
_cell_length_a   9.62308389
_cell_length_b   9.62308381
_cell_length_c   9.62308426
_cell_angle_alpha   96.90476741
_cell_angle_beta   116.09688277
_cell_angle_gamma   116.09688088
_symmetry_Int_Tables_number   1
_chemical_formula_structural   Li2Si4O7
_chemical_formula_sum   'Li8 Si16 O28'
_cell_volume   662.09163844
_cell_formula_units_Z   4
loop_
 _symmetry_equiv_pos_site_id
 _symmetry_equiv_pos_as_xyz
  1  'x, y, z'
loop_
 _atom_site_type_symbol
 _atom_site_label
 _atom_site_symmetry_multiplicity
 _atom_site_fract_x
 _atom_site_fract_y
 _atom_site_fract_z
 _atom_site_occupancy
  Li  Li1  1  0.688079  0.663110  0.670621  1
  Li  Li2  1  0.507511  0.420621  0.232541  1
  Li  Li3  1  0.492489  0.725031  0.913110  1
  Li  Li4  1  0.311921  0.982541  0.975031  1
  Li  Li5  1  0.007511  0.482541  0.170621  1
  Li  Li6  1  0.992489  0.163110  0.475031  1
  Li  Li7  1  0.188079  0.920621  0.413110  1
  Li  Li8  1  0.811921  0.225030  0.732541  1
  Si  Si9  1  0.487089  0.881982  0.602606  1
  Si  Si10  1  0.220625  0.352606  0.365518  1
  Si  Si11  1  0.779375  0.144892  0.131982  1
  Si  Si12  1  0.512911  0.115518  0.394892  1
  Si  Si13  1  0.720625  0.615518  0.102606  1
  Si  Si14  1  0.279375  0.381982  0.894892  1
  Si  Si15  1  0.987089  0.852606  0.631982  1
  Si  Si16  1  0.012911  0.644892  0.865518  1
  Si  Si17  1  0.180920  0.701327  0.644698  1
  Si  Si18  1  0.443370  0.394698  0.713778  1
  Si  Si19  1  0.556630  0.270406  0.951327  1
  Si  Si20  1  0.819080  0.463778  0.520406  1
  Si  Si21  1  0.943370  0.963778  0.144698  1
  Si  Si22  1  0.056630  0.201327  0.020406  1
  Si  Si23  1  0.680920  0.894698  0.451327  1
  Si  Si24  1  0.319080  0.770406  0.213778  1
  O  O25  1  0.372808  0.732697  0.668104  1
  O  O26  1  0.435406  0.418104  0.545296  1
  O  O27  1  0.564594  0.109890  0.982697  1
  O  O28  1  0.627192  0.295296  0.359890  1
  O  O29  1  0.935406  0.795296  0.168104  1
  O  O30  1  0.064594  0.232697  0.859890  1
  O  O31  1  0.872808  0.918104  0.482697  1
  O  O32  1  0.127192  0.609890  0.045296  1
  O  O33  1  0.628207  0.819449  0.580928  1
  O  O34  1  0.261479  0.330928  0.202720  1
  O  O35  1  0.738521  0.941241  0.069449  1
  O  O36  1  0.371793  0.952720  0.191241  1
  O  O37  1  0.761479  0.452720  0.080928  1
  O  O38  1  0.238521  0.319449  0.691241  1
  O  O39  1  0.128207  0.830928  0.569449  1
  O  O40  1  0.871793  0.441241  0.702720  1
  O  O41  1  0.296903  0.774115  0.376699  1
  O  O42  1  0.102584  0.126699  0.329796  1
  O  O43  1  0.897416  0.227212  0.024115  1
  O  O44  1  0.703097  0.079796  0.477212  1
  O  O45  1  0.602584  0.579796  0.876699  1
  O  O46  1  0.397416  0.274115  0.977212  1
  O  O47  1  0.796903  0.626699  0.524115  1
  O  O48  1  0.203097  0.727212  0.829796  1
  O  O49  1  0.000000  0.509735  0.509735  1
  O  O50  1  0.500000  0.259735  0.759735  1
  O  O51  1  0.000000  0.009735  0.009735  1
  O  O52  1  0.500000  0.759735  0.259735  1
