# generated using pymatgen
data_Li2Si2O5
_symmetry_space_group_name_H-M   'P 1'
_cell_length_a   4.85949221
_cell_length_b   5.76013521
_cell_length_c   14.82371437
_cell_angle_alpha   90.00000000
_cell_angle_beta   90.00000000
_cell_angle_gamma   90.00000000
_symmetry_Int_Tables_number   1
_chemical_formula_structural   Li2Si2O5
_chemical_formula_sum   'Li8 Si8 O20'
_cell_volume   414.93551309
_cell_formula_units_Z   4
loop_
 _symmetry_equiv_pos_site_id
 _symmetry_equiv_pos_as_xyz
  1  'x, y, z'
loop_
 _atom_site_type_symbol
 _atom_site_label
 _atom_site_symmetry_multiplicity
 _atom_site_fract_x
 _atom_site_fract_y
 _atom_site_fract_z
 _atom_site_occupancy
  Li  Li1  1  0.694103  0.402310  0.551545  1
  Li  Li2  1  0.694103  0.597690  0.948455  1
  Li  Li3  1  0.805897  0.902310  0.448455  1
  Li  Li4  1  0.805897  0.097690  0.051545  1
  Li  Li5  1  0.305897  0.597690  0.448455  1
  Li  Li6  1  0.305897  0.402310  0.051545  1
  Li  Li7  1  0.194103  0.097690  0.551545  1
  Li  Li8  1  0.194103  0.902310  0.948455  1
  O  O9  1  0.639102  0.847906  0.138968  1
  O  O10  1  0.360898  0.152094  0.861032  1
  O  O11  1  0.360898  0.847906  0.638968  1
  O  O12  1  0.139102  0.652094  0.138968  1
  O  O13  1  0.139102  0.347906  0.361032  1
  O  O14  1  0.242904  0.000000  0.250000  1
  O  O15  1  0.639102  0.152094  0.361032  1
  O  O16  1  0.860898  0.347906  0.861032  1
  O  O17  1  0.757096  0.000000  0.750000  1
  O  O18  1  0.742904  0.500000  0.250000  1
  O  O19  1  0.711249  0.575186  0.431285  1
  O  O20  1  0.257096  0.500000  0.750000  1
  O  O21  1  0.788751  0.075186  0.568715  1
  O  O22  1  0.788751  0.924814  0.931285  1
  O  O23  1  0.288751  0.575186  0.931285  1
  O  O24  1  0.711249  0.424814  0.068715  1
  O  O25  1  0.211250  0.924814  0.431285  1
  O  O26  1  0.211250  0.075186  0.068715  1
  O  O27  1  0.288751  0.424814  0.568715  1
  O  O28  1  0.860898  0.652094  0.638968  1
  Si  Si29  1  0.695571  0.905593  0.648508  1
  Si  Si30  1  0.195571  0.405593  0.851492  1
  Si  Si31  1  0.195571  0.594407  0.648508  1
  Si  Si32  1  0.304429  0.905593  0.148508  1
  Si  Si33  1  0.304429  0.094407  0.351492  1
  Si  Si34  1  0.804429  0.594407  0.148508  1
  Si  Si35  1  0.804429  0.405593  0.351492  1
  Si  Si36  1  0.695571  0.094407  0.851492  1
