# generated using pymatgen
data_Li6Si2O7
_symmetry_space_group_name_H-M   'P 1'
_cell_length_a   4.91555678
_cell_length_b   7.80200150
_cell_length_c   7.80200150
_cell_angle_alpha   90.00000000
_cell_angle_beta   90.00000000
_cell_angle_gamma   90.00000000
_symmetry_Int_Tables_number   1
_chemical_formula_structural   Li6Si2O7
_chemical_formula_sum   'Li12 Si4 O14'
_cell_volume   299.21597458
_cell_formula_units_Z   2
loop_
 _symmetry_equiv_pos_site_id
 _symmetry_equiv_pos_as_xyz
  1  'x, y, z'
loop_
 _atom_site_type_symbol
 _atom_site_label
 _atom_site_symmetry_multiplicity
 _atom_site_fract_x
 _atom_site_fract_y
 _atom_site_fract_z
 _atom_site_occupancy
  Li  Li1  1  0.703544  0.636955  0.582640  1
  Li  Li2  1  0.703544  0.363045  0.417360  1
  Li  Li3  1  0.296456  0.417360  0.636955  1
  Li  Li4  1  0.296456  0.582640  0.363045  1
  Li  Li5  1  0.296456  0.136955  0.917360  1
  Li  Li6  1  0.703544  0.082640  0.136955  1
  Li  Li7  1  0.684766  0.888755  0.388755  1
  Li  Li8  1  0.315234  0.388755  0.111245  1
  Li  Li9  1  0.315234  0.611245  0.888755  1
  Li  Li10  1  0.684766  0.111245  0.611245  1
  Li  Li11  1  0.703544  0.917360  0.863045  1
  Li  Li12  1  0.296456  0.863045  0.082640  1
  O  O13  1  0.709317  0.165111  0.902237  1
  O  O14  1  0.290683  0.902237  0.834889  1
  O  O15  1  0.709317  0.597763  0.334889  1
  O  O16  1  0.709317  0.402237  0.665111  1
  O  O17  1  0.290683  0.334889  0.402237  1
  O  O18  1  0.290683  0.665111  0.597763  1
  O  O19  1  0.153079  0.630784  0.130784  1
  O  O20  1  0.846921  0.130784  0.369216  1
  O  O21  1  0.846921  0.869216  0.630784  1
  O  O22  1  0.153079  0.369216  0.869216  1
  O  O23  1  0.684102  0.500000  0.000000  1
  O  O24  1  0.315898  0.000000  0.500000  1
  O  O25  1  0.709317  0.834889  0.097763  1
  O  O26  1  0.290683  0.097763  0.165111  1
  Si  Si27  1  0.820707  0.643729  0.143729  1
  Si  Si28  1  0.179293  0.143729  0.356271  1
  Si  Si29  1  0.179293  0.856271  0.643729  1
  Si  Si30  1  0.820707  0.356271  0.856271  1
