# generated using pymatgen
data_Li4CO4
_symmetry_space_group_name_H-M   'P 1'
_cell_length_a   5.14702342
_cell_length_b   5.14702323
_cell_length_c   5.88413729
_cell_angle_alpha   90.00000000
_cell_angle_beta   90.00000000
_cell_angle_gamma   89.44558064
_symmetry_Int_Tables_number   1
_chemical_formula_structural   Li4CO4
_chemical_formula_sum   'Li8 C2 O8'
_cell_volume   155.87437939
_cell_formula_units_Z   2
loop_
 _symmetry_equiv_pos_site_id
 _symmetry_equiv_pos_as_xyz
  1  'x, y, z'
loop_
 _atom_site_type_symbol
 _atom_site_label
 _atom_site_symmetry_multiplicity
 _atom_site_fract_x
 _atom_site_fract_y
 _atom_site_fract_z
 _atom_site_occupancy
  Li  Li1  1  0.107173  0.437201  0.038193  1
  Li  Li2  1  0.437201  0.107173  0.538193  1
  Li  Li3  1  0.892827  0.562799  0.538193  1
  Li  Li4  1  0.421530  0.578470  0.402910  1
  Li  Li5  1  0.040336  0.959664  0.249384  1
  Li  Li6  1  0.578470  0.421530  0.902910  1
  Li  Li7  1  0.562799  0.892827  0.038193  1
  Li  Li8  1  0.959664  0.040336  0.749384  1
  C  C9  1  0.305464  0.694536  0.735866  1
  C  C10  1  0.694536  0.305464  0.235866  1
  O  O11  1  0.579086  0.739268  0.717433  1
  O  O12  1  0.739268  0.579086  0.217433  1
  O  O13  1  0.420914  0.260732  0.217433  1
  O  O14  1  0.260732  0.420914  0.717433  1
  O  O15  1  0.180166  0.819834  0.546410  1
  O  O16  1  0.819834  0.180166  0.046410  1
  O  O17  1  0.790338  0.209662  0.439598  1
  O  O18  1  0.209662  0.790338  0.939598  1
