# generated using pymatgen
data_Li4SiO4
_symmetry_space_group_name_H-M   'P 1'
_cell_length_a   5.28217536
_cell_length_b   5.53334839
_cell_length_c   18.25951882
_cell_angle_alpha   92.10442441
_cell_angle_beta   89.85216831
_cell_angle_gamma   89.63429544
_symmetry_Int_Tables_number   1
_chemical_formula_structural   Li4SiO4
_chemical_formula_sum   'Li24 Si6 O24'
_cell_volume   533.31842185
_cell_formula_units_Z   6
loop_
 _symmetry_equiv_pos_site_id
 _symmetry_equiv_pos_as_xyz
  1  'x, y, z'
loop_
 _atom_site_type_symbol
 _atom_site_label
 _atom_site_symmetry_multiplicity
 _atom_site_fract_x
 _atom_site_fract_y
 _atom_site_fract_z
 _atom_site_occupancy
  Li  Li1  1  0.185509  0.012508  0.095057  1
  Li  Li2  1  0.116190  0.102767  0.455234  1
  Li  Li3  1  0.189951  0.031496  0.765181  1
  Li  Li4  1  0.367968  0.156695  0.326515  1
  Li  Li5  1  0.483467  0.179629  0.582231  1
  Li  Li6  1  0.517277  0.314595  0.200890  1
  Li  Li7  1  0.464920  0.169441  0.905556  1
  Li  Li8  1  0.785096  0.831252  0.337096  1
  Li  Li9  1  0.655402  0.831459  0.016097  1
  Li  Li10  1  0.781883  0.842105  0.683512  1
  Li  Li11  1  0.791640  0.816087  0.161446  1
  Li  Li12  1  0.653488  0.846668  0.493666  1
  Li  Li13  1  0.758432  0.831513  0.830676  1
  Li  Li14  1  0.965897  0.135511  0.251154  1
  Li  Li15  1  0.820420  0.444094  0.576618  1
  Li  Li16  1  0.831489  0.407769  0.911022  1
  Li  Li17  1  0.023826  0.047860  0.941220  1
  Li  Li18  1  0.025062  0.089492  0.601644  1
  Li  Li19  1  0.067390  0.452866  0.155373  1
  Li  Li20  1  0.082011  0.507409  0.353546  1
  Li  Li21  1  0.145294  0.531573  0.034192  1
  Li  Li22  1  0.136974  0.588887  0.476099  1
  Li  Li23  1  0.088434  0.473757  0.688965  1
  Li  Li24  1  0.131239  0.534257  0.810618  1
  Si  Si25  1  0.317561  0.717679  0.596971  1
  Si  Si26  1  0.302761  0.707853  0.252117  1
  Si  Si27  1  0.331790  0.699193  0.922326  1
  Si  Si28  1  0.669959  0.316658  0.073144  1
  Si  Si29  1  0.652968  0.338968  0.422083  1
  Si  Si30  1  0.654588  0.329058  0.748709  1
  O  O31  1  0.163088  0.810187  0.179834  1
  O  O32  1  0.180022  0.851731  0.325191  1
  O  O33  1  0.241527  0.889589  0.527143  1
  O  O34  1  0.179494  0.841655  0.669210  1
  O  O35  1  0.207135  0.861047  0.857267  1
  O  O36  1  0.259915  0.842694  0.000291  1
  O  O37  1  0.194492  0.443689  0.582266  1
  O  O38  1  0.219750  0.410920  0.257489  1
  O  O39  1  0.199783  0.428587  0.919597  1
  O  O40  1  0.366526  0.327608  0.094491  1
  O  O41  1  0.345388  0.344484  0.748656  1
  O  O42  1  0.340127  0.358594  0.419671  1
  O  O43  1  0.610262  0.717292  0.247904  1
  O  O44  1  0.625592  0.717754  0.594842  1
  O  O45  1  0.638475  0.689198  0.916159  1
  O  O46  1  0.805666  0.583305  0.076134  1
  O  O47  1  0.800998  0.603069  0.425042  1
  O  O48  1  0.807876  0.588859  0.755681  1
  O  O49  1  0.738493  0.186216  0.346596  1
  O  O50  1  0.747560  0.194930  0.496366  1
  O  O51  1  0.754609  0.208759  0.667372  1
  O  O52  1  0.729375  0.178394  0.993125  1
  O  O53  1  0.805279  0.173917  0.143053  1
  O  O54  1  0.746683  0.172423  0.819661  1
