# generated using pymatgen
data_Li4SiO4
_symmetry_space_group_name_H-M   'P 1'
_cell_length_a   6.15812753
_cell_length_b   11.69642740
_cell_length_c   16.91575167
_cell_angle_alpha   98.96165465
_cell_angle_beta   90.00000000
_cell_angle_gamma   90.00000000
_symmetry_Int_Tables_number   1
_chemical_formula_structural   Li4SiO4
_chemical_formula_sum   'Li56 Si14 O56'
_cell_volume   1203.53596088
_cell_formula_units_Z   14
loop_
 _symmetry_equiv_pos_site_id
 _symmetry_equiv_pos_as_xyz
  1  'x, y, z'
loop_
 _atom_site_type_symbol
 _atom_site_label
 _atom_site_symmetry_multiplicity
 _atom_site_fract_x
 _atom_site_fract_y
 _atom_site_fract_z
 _atom_site_occupancy
  Li  Li1  1  0.250000  0.972972  0.429626  1
  Li  Li2  1  0.494346  0.523116  0.117215  1
  Li  Li3  1  0.006631  0.663146  0.826773  1
  Li  Li4  1  0.039543  0.237644  0.598002  1
  Li  Li5  1  0.985633  0.920564  0.132637  1
  Li  Li6  1  0.750000  0.127133  0.711161  1
  Li  Li7  1  0.531142  0.193050  0.014957  1
  Li  Li8  1  0.250000  0.274500  0.859533  1
  Li  Li9  1  0.029781  0.949155  0.707139  1
  Li  Li10  1  0.031142  0.806950  0.985043  1
  Li  Li11  1  0.970219  0.050845  0.292861  1
  Li  Li12  1  0.996414  0.616725  0.591867  1
  Li  Li13  1  0.534791  0.334004  0.732370  1
  Li  Li14  1  0.250000  0.005956  0.010606  1
  Li  Li15  1  0.250000  0.140207  0.732432  1
  Li  Li16  1  0.750000  0.725500  0.140467  1
  Li  Li17  1  0.460457  0.237644  0.598002  1
  Li  Li18  1  0.003586  0.383275  0.408133  1
  Li  Li19  1  0.514367  0.920564  0.132637  1
  Li  Li20  1  0.996994  0.187767  0.454490  1
  Li  Li21  1  0.250000  0.128728  0.146219  1
  Li  Li22  1  0.960457  0.762356  0.401998  1
  Li  Li23  1  0.496994  0.812233  0.545510  1
  Li  Li24  1  0.503586  0.616725  0.591867  1
  Li  Li25  1  0.034791  0.665996  0.267630  1
  Li  Li26  1  0.250000  0.589474  0.983249  1
  Li  Li27  1  0.750000  0.272006  0.304094  1
  Li  Li28  1  0.470219  0.949155  0.707139  1
  Li  Li29  1  0.539543  0.762356  0.401998  1
  Li  Li30  1  0.496414  0.383275  0.408133  1
  Li  Li31  1  0.529781  0.050845  0.292861  1
  Li  Li32  1  0.506631  0.336854  0.173227  1
  Li  Li33  1  0.993369  0.336854  0.173227  1
  Li  Li34  1  0.005654  0.523116  0.117215  1
  Li  Li35  1  0.250000  0.452877  0.277435  1
  Li  Li36  1  0.250000  0.872867  0.288839  1
  Li  Li37  1  0.003006  0.812233  0.545510  1
  Li  Li38  1  0.485633  0.079436  0.867363  1
  Li  Li39  1  0.750000  0.859793  0.267568  1
  Li  Li40  1  0.250000  0.727994  0.695906  1
  Li  Li41  1  0.750000  0.994044  0.989394  1
  Li  Li42  1  0.750000  0.027028  0.570374  1
  Li  Li43  1  0.250000  0.417674  0.550070  1
  Li  Li44  1  0.465209  0.665996  0.267630  1
  Li  Li45  1  0.014367  0.079436  0.867363  1
  Li  Li46  1  0.750000  0.582326  0.449930  1
  Li  Li47  1  0.750000  0.871272  0.853781  1
  Li  Li48  1  0.994346  0.476884  0.882785  1
  Li  Li49  1  0.965209  0.334004  0.732370  1
  Li  Li50  1  0.750000  0.547123  0.722565  1
  Li  Li51  1  0.968858  0.193050  0.014957  1
  Li  Li52  1  0.493369  0.663146  0.826773  1
  Li  Li53  1  0.505654  0.476884  0.882785  1
  Li  Li54  1  0.468858  0.806950  0.985043  1
  Li  Li55  1  0.750000  0.410526  0.016751  1
  Li  Li56  1  0.503006  0.187767  0.454490  1
  Si  Si57  1  0.250000  0.477127  0.713856  1
  Si  Si58  1  0.250000  0.752202  0.138013  1
  Si  Si59  1  0.750000  0.522873  0.286144  1
  Si  Si60  1  0.750000  0.384024  0.571093  1
  Si  Si61  1  0.750000  0.104540  0.143592  1
  Si  Si62  1  0.750000  0.659024  0.993884  1
  Si  Si63  1  0.250000  0.340976  0.006116  1
  Si  Si64  1  0.750000  0.247798  0.861987  1
  Si  Si65  1  0.250000  0.615976  0.428907  1
  Si  Si66  1  0.250000  0.895460  0.856408  1
  Si  Si67  1  0.750000  0.959898  0.421196  1
  Si  Si68  1  0.250000  0.201698  0.292360  1
  Si  Si69  1  0.750000  0.798302  0.707640  1
  Si  Si70  1  0.250000  0.040102  0.578804  1
  O  O71  1  0.250000  0.334217  0.675874  1
  O  O72  1  0.250000  0.909061  0.530039  1
  O  O73  1  0.750000  0.237553  0.187044  1
  O  O74  1  0.250000  0.282280  0.221071  1
  O  O75  1  0.527171  0.642348  0.939666  1
  O  O76  1  0.750000  0.304062  0.646705  1
  O  O77  1  0.750000  0.382829  0.901228  1
  O  O78  1  0.528914  0.344991  0.518490  1
  O  O79  1  0.468104  0.785107  0.196116  1
  O  O80  1  0.968104  0.214893  0.803884  1
  O  O81  1  0.250000  0.617171  0.098772  1
  O  O82  1  0.532938  0.072578  0.084053  1
  O  O83  1  0.529178  0.502018  0.230187  1
  O  O84  1  0.250000  0.991943  0.793322  1
  O  O85  1  0.973931  0.782389  0.653998  1
  O  O86  1  0.750000  0.008057  0.206678  1
  O  O87  1  0.972829  0.642348  0.939666  1
  O  O88  1  0.250000  0.062879  0.246261  1
  O  O89  1  0.029178  0.497982  0.769813  1
  O  O90  1  0.250000  0.555575  0.641335  1
  O  O91  1  0.526069  0.782389  0.653998  1
  O  O92  1  0.750000  0.867438  0.485517  1
  O  O93  1  0.471086  0.655009  0.481510  1
  O  O94  1  0.532384  0.930634  0.362072  1
  O  O95  1  0.971086  0.344991  0.518490  1
  O  O96  1  0.250000  0.762447  0.812956  1
  O  O97  1  0.026069  0.217611  0.346002  1
  O  O98  1  0.967616  0.930634  0.362072  1
  O  O99  1  0.970822  0.502018  0.230187  1
  O  O100  1  0.032384  0.069366  0.637928  1
  O  O101  1  0.750000  0.665783  0.324126  1
  O  O102  1  0.470822  0.497982  0.769813  1
  O  O103  1  0.750000  0.522702  0.604744  1
  O  O104  1  0.531896  0.214893  0.803884  1
  O  O105  1  0.250000  0.420775  0.934164  1
  O  O106  1  0.467062  0.927422  0.915947  1
  O  O107  1  0.473931  0.217611  0.346002  1
  O  O108  1  0.250000  0.695938  0.353295  1
  O  O109  1  0.967062  0.072578  0.084053  1
  O  O110  1  0.472829  0.357652  0.060334  1
  O  O111  1  0.250000  0.477298  0.395256  1
  O  O112  1  0.750000  0.717720  0.778929  1
  O  O113  1  0.750000  0.579225  0.065836  1
  O  O114  1  0.250000  0.132562  0.514483  1
  O  O115  1  0.028914  0.655009  0.481510  1
  O  O116  1  0.750000  0.156169  0.928815  1
  O  O117  1  0.750000  0.444425  0.358665  1
  O  O118  1  0.250000  0.843831  0.071185  1
  O  O119  1  0.750000  0.937121  0.753739  1
  O  O120  1  0.750000  0.090939  0.469961  1
  O  O121  1  0.027171  0.357652  0.060334  1
  O  O122  1  0.467616  0.069366  0.637928  1
  O  O123  1  0.031896  0.785107  0.196116  1
  O  O124  1  0.750000  0.799446  0.039499  1
  O  O125  1  0.032938  0.927422  0.915947  1
  O  O126  1  0.250000  0.200554  0.960501  1
