# generated using pymatgen
data_Li2Si3O7
_symmetry_space_group_name_H-M   'P 1'
_cell_length_a   4.92570338
_cell_length_b   6.06204444
_cell_length_c   19.98387179
_cell_angle_alpha   90.00000000
_cell_angle_beta   90.00000000
_cell_angle_gamma   90.00000000
_symmetry_Int_Tables_number   1
_chemical_formula_structural   Li2Si3O7
_chemical_formula_sum   'Li8 Si12 O28'
_cell_volume   596.71507010
_cell_formula_units_Z   4
loop_
 _symmetry_equiv_pos_site_id
 _symmetry_equiv_pos_as_xyz
  1  'x, y, z'
loop_
 _atom_site_type_symbol
 _atom_site_label
 _atom_site_symmetry_multiplicity
 _atom_site_fract_x
 _atom_site_fract_y
 _atom_site_fract_z
 _atom_site_occupancy
  Li  Li1  1  0.057106  0.353215  0.044247  1
  Li  Li2  1  0.942894  0.646785  0.955753  1
  Li  Li3  1  0.442894  0.353215  0.955753  1
  Li  Li4  1  0.442894  0.353215  0.544247  1
  Li  Li5  1  0.557106  0.646785  0.044247  1
  Li  Li6  1  0.057106  0.353215  0.455753  1
  Li  Li7  1  0.557106  0.646785  0.455753  1
  Li  Li8  1  0.942894  0.646785  0.544247  1
  Si  Si9  1  0.946472  0.146426  0.605207  1
  Si  Si10  1  0.920862  0.350402  0.750000  1
  Si  Si11  1  0.446472  0.853574  0.605207  1
  Si  Si12  1  0.579138  0.350402  0.250000  1
  Si  Si13  1  0.079138  0.649598  0.250000  1
  Si  Si14  1  0.053528  0.853574  0.105207  1
  Si  Si15  1  0.446472  0.853574  0.894793  1
  Si  Si16  1  0.553528  0.146426  0.394793  1
  Si  Si17  1  0.553528  0.146426  0.105207  1
  Si  Si18  1  0.946472  0.146426  0.894793  1
  Si  Si19  1  0.420862  0.649598  0.750000  1
  Si  Si20  1  0.053528  0.853574  0.394793  1
  O  O21  1  0.043338  0.336782  0.944538  1
  O  O22  1  0.619577  0.087404  0.907875  1
  O  O23  1  0.012068  0.796402  0.315661  1
  O  O24  1  0.956662  0.663218  0.055462  1
  O  O25  1  0.897253  0.424270  0.250000  1
  O  O26  1  0.880423  0.087404  0.407875  1
  O  O27  1  0.102747  0.575730  0.750000  1
  O  O28  1  0.987932  0.203598  0.815661  1
  O  O29  1  0.456662  0.336782  0.444538  1
  O  O30  1  0.602747  0.424270  0.750000  1
  O  O31  1  0.543338  0.663218  0.944538  1
  O  O32  1  0.487932  0.796402  0.815661  1
  O  O33  1  0.380423  0.912596  0.407875  1
  O  O34  1  0.487932  0.796402  0.684339  1
  O  O35  1  0.543338  0.663218  0.555462  1
  O  O36  1  0.956662  0.663218  0.444538  1
  O  O37  1  0.987932  0.203598  0.684339  1
  O  O38  1  0.380423  0.912596  0.092125  1
  O  O39  1  0.880423  0.087404  0.092125  1
  O  O40  1  0.397253  0.575730  0.250000  1
  O  O41  1  0.512068  0.203598  0.315661  1
  O  O42  1  0.619577  0.087404  0.592125  1
  O  O43  1  0.512068  0.203598  0.184339  1
  O  O44  1  0.043338  0.336782  0.555462  1
  O  O45  1  0.012068  0.796402  0.184339  1
  O  O46  1  0.456662  0.336782  0.055462  1
  O  O47  1  0.119577  0.912596  0.907875  1
  O  O48  1  0.119577  0.912596  0.592125  1
